data/irish_network/pylon_converted_mp_normalised/WinterPeak2013_pylon_mp_normalised.m
function mpc = WinterPeak2013_pylon_mp_normalised
%WINTERPEAK2013_PYLON_MP_NORMALISED

%% MATPOWER Case Format : Version 2
mpc.version = '2';

%%-----  Power Flow Data  -----%%
%% system MVA base
mpc.baseMVA = 100;

%% bus data
%	bus_i	type	Pd	Qd	Gs	Bs	area	Vm	Va	baseKV	zone	Vmax	Vmin
mpc.bus = [
	10	1	70.14	11.64	0	0	1	1.06551	-14.0963	38	1	1.1	0.9;
	11	1	43.49	8.64	0	0	1	1.07361	-12.1478	38	1	1.1	0.9;
	12	1	57.24	18.82	0	0	1	1.05306	-15.8163	38	1	1.1	0.9;
	13	1	67.28	22.11	0	0	1	1.07086	-16.3998	38	1	1.1	0.9;
	14	1	49.56	16.29	0	0	1	1.05305	-14.3147	38	1	1.1	0.9;
	15	1	64.71	21.26	0	0	1	1.06212	-14.6974	38	1	1.1	0.9;
	1021	1	0	0	0	0	1	1.05	-5.6562	110	1	1.1	0.9;
	1041	1	0.75	0.43	0	0	1	1.03805	-2.3005	110	1	1.1	0.9;
	1042	1	0	0	0	0	1	1.04	0.6851	220	1	1.1	0.9;
	1052	1	0	0	0	0	1	1.04057	0.5399	220	1	1.1	0.9;
	1061	1	0	0	0	0	1	1.04679	-11.3423	110	1	1.1	0.9;
	1062	1	0	0	0	0	1	1.04	0.6851	220	1	1.1	0.9;
	1071	1	0	0	0	0	1	1.06267	-6.5208	110	1	1.1	0.9;
	1072	1	0	0	0	0	1	1.03995	0.6708	220	1	1.1	0.9;
	1081	1	0	0	0	0	1	1.04979	-5.158	110	1	1.1	0.9;
	1101	1	16.62	4.98	0	0	1	1.04721	-10.1567	110	1	1.1	0.9;
	1121	1	0	0	0	0	1	1.06464	-8.9468	110	1	1.1	0.9;
	1122	1	0	0	0	0	1	1.06455	-7.4382	220	1	1.1	0.9;
	1131	1	0	0	0	0	1	1.05356	-0.0716	110	1	1.1	0.9;
	1141	1	0	0	0	0	1	1.06309	-9.3863	110	1	1.1	0.9;
	1151	1	0	0	0	0	1	1.05356	-0.0716	110	1	1.1	0.9;
	1161	1	0	0	0	0	1	1.05	0.1569	110	1	1.1	0.9;
	1181	1	0	0	0	0	1	1.04189	-13.9818	110	1	1.1	0.9;
	1201	1	0	0	0	0	1	1.0648	-9.0612	110	1	1.1	0.9;
	1221	1	0	0	0	0	1	1.04748	-9.5921	110	1	1.1	0.9;
	1231	1	0	0	0	0	1	1.06671	-8.1103	110	1	1.1	0.9;
	1251	1	0	0	0	0	1	1.0406	-7.4454	110	1	1.1	0.9;
	1271	1	0	0	0	0	1	1.04293	-11.216	110	1	1.1	0.9;
	1281	1	0	0	0	0	1	1.03135	-4.4486	110	1	1.1	0.9;
	1301	1	0	0	0	0	1	1.05817	-9.8665	110	1	1.1	0.9;
	1321	1	0	0	0	0	1	1.04337	-10.2585	110	1	1.1	0.9;
	1341	1	0	0	0	0	1	1.03397	-14.8654	110	1	1.1	0.9;
	1351	1	0	0	0	0	1	1.04659	-10.5122	110	1	1.1	0.9;
	1361	1	0	0	0	0	1	1.04594	-9.6812	110	1	1.1	0.9;
	1381	1	0	0	0	0	1	1.03547	-2.8014	110	1	1.1	0.9;
	1391	1	0	0	0	0	1	1.03155	-3.0543	110	1	1.1	0.9;
	1401	1	0	0	0	0	1	1.05162	-13.576	110	1	1.1	0.9;
	1421	1	0	0	0	0	1	1.04911	-10.6951	110	1	1.1	0.9;
	1441	1	0	0	0	0	1	1.02463	-4.6384	110	1	1.1	0.9;
	1451	1	0	0	0	0	1	1.0529	-9.7775	110	1	1.1	0.9;
	1461	1	0	0	0	0	1	1.03568	-5.6013	110	1	1.1	0.9;
	1481	1	0	0	0	0	1	1.05415	-8.5255	110	1	1.1	0.9;
	1501	1	0	0	0	0	1	1.02443	-4.6514	110	1	1.1	0.9;
	1541	1	0	0	0	0	1	1.06164	-8.9027	110	1	1.1	0.9;
	1551	1	0	0	0	0	1	1.05	2.051	110	1	1.1	0.9;
	1581	1	0	0	0	0	1	1.06402	-9.1181	110	1	1.1	0.9;
	1601	1	0	0	0	0	1	1.04303	-2.4978	110	1	1.1	0.9;
	1602	1	0	0	0	0	1	1.04838	-0.5974	220	1	1.1	0.9;
	1611	1	0	0	0	0	1	1.04957	-0.8572	110	1	1.1	0.9;
	1621	1	0	0	0	0	1	1.03628	-3.5038	110	1	1.1	0.9;
	1631	1	0	0	0	0	1	1.05044	-11.377	110	1	1.1	0.9;
	1641	1	0	0	0	0	1	1.06077	-6.9114	110	1	1.1	0.9;
	1642	1	0	0	0	0	1	1.06017	-3.6941	220	1	1.1	0.9;
	1651	1	0	0	0	0	1	1.06135	-0.9274	110	1	1.1	0.9;
	1661	1	0	0	0	0	1	1.05	-12.7092	110	1	1.1	0.9;
	1681	1	0	0	0	0	1	1.03911	-3.0895	110	1	1.1	0.9;
	1691	1	0	0	0	0	1	1.05224	-10.4944	110	1	1.1	0.9;
	1701	1	0	0	0	0	1	1.05	-13.7112	110	1	1.1	0.9;
	1711	1	0	0	0	0	1	1.05945	-10.5611	110	1	1.1	0.9;
	1721	1	0	0	0	0	1	1.05309	-9.5269	110	1	1.1	0.9;
	1731	1	0	0	0	0	1	1.05945	-10.5611	110	1	1.1	0.9;
	1741	1	0	0	0	0	1	1.05235	-10.4532	110	1	1.1	0.9;
	1742	1	0	0	0	0	1	1.06393	-7.6516	220	1	1.1	0.9;
	1761	1	0	0	0	0	1	1.05208	-13.5383	110	1	1.1	0.9;
	1781	1	0	0	0	0	1	1.0496	0.1361	110	1	1.1	0.9;
	1801	1	0	0	0	0	1	1.05244	-10.5321	110	1	1.1	0.9;
	1821	1	0	0	0	0	1	1.05334	-9.1288	110	1	1.1	0.9;
	1841	1	0	0	0	0	1	1.06536	-8.3064	110	1	1.1	0.9;
	1861	1	0	0	0	0	1	1.04598	-11.4333	110	1	1.1	0.9;
	1871	1	0	0	0	0	1	1.05523	-9.5908	110	1	1.1	0.9;
	1881	1	0	0	0	0	1	1.03427	-4.6149	110	1	1.1	0.9;
	1901	1	0	0	0	0	1	1.05607	-8.9118	110	1	1.1	0.9;
	1911	1	0	0	0	0	1	1.06313	-9.3874	110	1	1.1	0.9;
	1921	1	0	0	0	0	1	1.03438	-2.9368	110	1	1.1	0.9;
	1931	1	0	0	0	0	1	1.0512	-12.682	110	1	1.1	0.9;
	1941	1	0	0	0	0	1	1.075	-7.1894	110	1	1.1	0.9;
	1951	1	0	0	0	0	1	1.03928	-13.5711	110	1	1.1	0.9;
	1961	1	0	0	0	0	1	1.03384	-3.2989	110	1	1.1	0.9;
	1971	1	0	0	0	0	1	1.05	-0.4329	110	1	1.1	0.9;
	1981	1	0	0	0	0	1	1.04518	-15.0852	110	1	1.1	0.9;
	1991	1	0	0	0	0	1	1.0669	-7.442	110	1	1.1	0.9;
	2001	1	0	0	0	0	1	1.05669	-7.984	110	1	1.1	0.9;
	2002	1	0	0	0	0	1	1.06477	-4.9691	220	1	1.1	0.9;
	2021	1	0	0	0	0	1	1.0295	-13.1246	110	1	1.1	0.9;
	2041	1	0	0	0	0	1	1.05573	-9.5128	110	1	1.1	0.9;
	2042	1	0	0	0	0	1	1.075	-5.5713	220	1	1.1	0.9;
	2052	1	0	0	0	0	1	1.075	-5.5713	220	1	1.1	0.9;
	2081	4	0	0	0	0	1	1	0	110	1	1.1	0.9;
	2101	1	0	0	0	0	1	1.03628	-13.3068	110	1	1.1	0.9;
	2121	1	0	0	0	0	1	1.04463	-7.0637	110	1	1.1	0.9;
	2131	1	0	0	0	0	1	1.05293	0.0392	110	1	1.1	0.9;
	2141	1	0	0	0	0	1	1.03625	-7.5777	110	1	1.1	0.9;
	2161	1	0	0	0	0	1	1.04803	-10.1049	110	1	1.1	0.9;
	2181	1	0	0	0	0	1	1.03158	-12.7625	110	1	1.1	0.9;
	2202	1	0	0	0	0	1	1.06291	-5.7372	220	1	1.1	0.9;
	2204	1	0	0	0	0	1	1.02963	-3.2353	380	1	1.1	0.9;
	2221	1	0	0	0	0	1	1.02875	-4.5427	110	1	1.1	0.9;
	2231	1	0	0	0	0	1	1.06456	-6.2581	110	1	1.1	0.9;
	2241	1	0	0	0	0	1	1.06307	-7.8562	110	1	1.1	0.9;
	2251	1	0	0	0	0	1	1.06016	-10.5264	110	1	1.1	0.9;
	2261	1	0	0	0	0	1	1.04275	-9.5698	110	1	1.1	0.9;
	2281	1	0	0	0	0	1	1.04247	-11.3419	110	1	1.1	0.9;
	2301	1	0	0	0	0	1	1.04464	-9.8754	110	1	1.1	0.9;
	2321	1	0	0	0	0	1	1.03241	-15.8056	110	1	1.1	0.9;
	2361	1	0	0	0	0	1	1.0416	-7.3727	110	1	1.1	0.9;
	2401	1	0	0	0	0	1	1.05523	-7.4802	110	1	1.1	0.9;
	2481	1	0	0	0	0	1	1.04608	-10.7519	110	1	1.1	0.9;
	2491	1	0	0	0	0	1	1.04589	-10.749	110	1	1.1	0.9;
	2521	1	0	0	0	0	1	1.04724	-11.2546	110	1	1.1	0.9;
	2522	1	0	0	0	0	1	1.04939	-9.1109	220	1	1.1	0.9;
	2541	1	0	0	0	0	1	1.05852	-11.4826	110	1	1.1	0.9;
	2551	1	0	0	0	0	1	1.05637	-10.7717	110	1	1.1	0.9;
	2561	1	0	0	0	0	1	1.06645	-8.89	110	1	1.1	0.9;
	2562	1	0	0	0	0	1	1.075	-5.7754	220	1	1.1	0.9;
	2563	1	0	0	0	0	1	1.075	-5.7754	220	1	1.1	0.9;
	2571	1	0	0	0	0	1	1.06108	-10.3236	110	1	1.1	0.9;
	2581	1	0	0	0	0	1	1.0544	-9.6779	110	1	1.1	0.9;
	2671	1	0	0	0	0	1	1.05043	-11.1723	110	1	1.1	0.9;
	2681	1	0	0	0	0	1	1.04921	-11.5444	110	1	1.1	0.9;
	2701	1	0	0	0	0	1	1.03887	-11.5597	110	1	1.1	0.9;
	2721	1	0	0	0	0	1	1.04637	-9.9019	110	1	1.1	0.9;
	2731	1	0	0	0	0	1	1.04999	-0.4137	110	1	1.1	0.9;
	2741	1	0	0	0	0	1	1.06266	-8.1041	110	1	1.1	0.9;
	2742	1	0	0	0	0	1	1.075	-4.975	220	1	1.1	0.9;
	2761	1	0	0	0	0	1	1.05891	-10.5926	110	1	1.1	0.9;
	2771	1	0	0	0	0	1	1.05116	-0.6559	110	1	1.1	0.9;
	2780	1	0	0	0	0	1	1.04969	-7.5822	110	1	1.1	0.9;
	2781	1	0	0	0	0	1	1.04969	-7.5822	110	1	1.1	0.9;
	2801	1	0	0	0	0	1	1.03835	-14.6157	110	1	1.1	0.9;
	2821	1	0	0	0	0	1	1.04373	-15.2296	110	1	1.1	0.9;
	2841	1	0	0	0	0	1	1.0283	-12.9066	110	1	1.1	0.9;
	2842	1	0	0	0	0	1	1.04233	-9.8526	220	1	1.1	0.9;
	2852	1	0	0	0	0	1	1.04045	0.6217	220	1	1.1	0.9;
	2861	1	0	0	0	0	1	1.03166	-12.8693	110	1	1.1	0.9;
	2881	1	0	0	0	0	1	1.04757	-3.0831	110	1	1.1	0.9;
	2941	1	0	0	0	0	1	1.05882	-11.4661	110	1	1.1	0.9;
	2951	1	0	0	0	0	1	1.05662	-10.7541	110	1	1.1	0.9;
	2962	1	0	0	0	0	1	1.07548	-5.6809	220	1	1.1	0.9;
	2972	1	0	0	0	0	1	1.07683	-5.312	220	1	1.1	0.9;
	3061	1	0	0	0	0	1	1.03804	-3.3792	110	1	1.1	0.9;
	3081	1	0	0	0	0	1	1.05706	-10.711	110	1	1.1	0.9;
	3082	1	0	0	0	0	1	1.06698	-8.3237	220	1	1.1	0.9;
	3091	1	0	0	0	0	1	1.0364	-12.677	110	1	1.1	0.9;
	3101	1	0	0	0	0	1	1.05497	-10.2344	110	1	1.1	0.9;
	3122	1	0	0	0	0	1	1.07063	-7.5815	220	1	1.1	0.9;
	3200	1	0	0	0	0	1	1.03736	-3.2132	110	1	1.1	0.9;
	3201	1	0	0	0	0	1	1.03736	-3.2132	110	1	1.1	0.9;
	3202	1	0	0	0	0	1	1.04102	-0.6575	220	1	1.1	0.9;
	3203	1	0	0	0	0	1	1.04396	-1.4291	220	1	1.1	0.9;
	3209	1	0	0	0	0	1	1.03736	-3.2132	110	1	1.1	0.9;
	3221	1	0	0	0	0	1	1.02843	-3.8976	110	1	1.1	0.9;
	3241	1	0	0	0	0	1	1.04972	-10.9511	110	1	1.1	0.9;
	3251	1	0	0	0	0	1	1.05818	-1.2801	110	1	1.1	0.9;
	3261	1	0	0	0	0	1	1.04937	-10.8279	110	1	1.1	0.9;
	3281	1	0	0	0	0	1	1.05013	-5.1235	110	1	1.1	0.9;
	3282	1	0	0	0	0	1	1.04545	-3.4426	220	1	1.1	0.9;
	3301	1	0	0	0	0	1	1.04528	-1.7381	110	1	1.1	0.9;
	3321	1	0	0	0	0	1	1.01901	-13.5252	110	1	1.1	0.9;
	3341	1	0	0	0	0	1	1.06204	-8.7983	110	1	1.1	0.9;
	3342	1	0	0	0	0	1	1.05515	-6.4005	220	1	1.1	0.9;
	3361	1	0	0	0	0	1	1.02685	-16.5396	110	1	1.1	0.9;
	3381	1	0	0	0	0	1	1.04146	-9.8642	110	1	1.1	0.9;
	3391	1	0	0	0	0	1	1.05	-2.8627	110	1	1.1	0.9;
	3401	1	0	0	0	0	1	1.05515	-8.4836	110	1	1.1	0.9;
	3421	1	0	0	0	0	1	1.05944	-10.5607	110	1	1.1	0.9;
	3431	1	0	0	0	0	1	1.03138	-12.8871	110	1	1.1	0.9;
	3501	1	0	0	0	0	1	1.05	-9.3862	110	1	1.1	0.9;
	3521	1	0	0	0	0	1	1.06125	-12.301	110	1	1.1	0.9;
	3522	1	0	0	0	0	1	1.03838	-10.1512	220	1	1.1	0.9;
	3541	1	0	0	0	0	1	1.04441	-5.0581	110	1	1.1	0.9;
	3561	1	0	0	0	0	1	1.05453	-14.6721	110	1	1.1	0.9;
	3581	1	0	0	0	0	1	1.02683	-16.5393	110	1	1.1	0.9;
	3601	1	0	0	0	0	1	1.0268	-3.8932	110	1	1.1	0.9;
	3611	1	0	0	0	0	1	1.02709	-3.885	110	1	1.1	0.9;
	3621	1	0	0	0	0	1	1.05	-10.8625	110	1	1.1	0.9;
	3641	1	0	0	0	0	1	1.06728	-7.5151	110	1	1.1	0.9;
	3642	1	0	0	0	0	1	1.06899	-6.5983	220	1	1.1	0.9;
	3651	1	0	0	0	0	1	1.06728	-7.5151	110	1	1.1	0.9;
	3751	1	0	0	0	0	1	1.05928	-11.4273	110	1	1.1	0.9;
	3761	1	0	0	0	0	1	1.05347	-9.7276	110	1	1.1	0.9;
	3781	1	0	0	0	0	1	1.06417	-9.1054	110	1	1.1	0.9;
	3801	1	0	0	0	0	1	1.03181	-3.3561	110	1	1.1	0.9;
	3821	1	0	0	0	0	1	1.02701	-13.051	110	1	1.1	0.9;
	3841	1	0	0	0	0	1	1.04886	-9.7663	110	1	1.1	0.9;
	3842	1	0	0	0	0	1	1.05888	-7.8155	220	1	1.1	0.9;
	3851	1	0	0	0	0	1	1.05306	-9.2062	110	1	1.1	0.9;
	3852	1	0	0	0	0	1	1.06573	-6.7541	220	1	1.1	0.9;
	3861	1	0	0	0	0	1	1.05945	-11.3947	110	1	1.1	0.9;
	3871	1	0	0	0	0	1	1.05313	-10.8955	110	1	1.1	0.9;
	3881	1	0	0	0	0	1	1.03947	-3.0562	110	1	1.1	0.9;
	3901	1	0	0	0	0	1	1.04294	-4.1507	110	1	1.1	0.9;
	3934	1	0	0	0	6	1	1.05	3.3663	380	1	1.1	0.9;
	3941	1	0	0	0	0	1	1.03426	-7.7861	110	1	1.1	0.9;
	3942	1	0	0	0	0	1	1.06859	0.708	220	1	1.1	0.9;
	3944	1	0	0	0	6	1	1.05	3.3663	380	1	1.1	0.9;
	3954	1	0	0	0	6	1	1.05	4.1626	380	1	1.1	0.9;
	3961	1	0	0	0	0	1	1.02719	-3.8727	110	1	1.1	0.9;
	3981	1	0	0	0	0	1	1.04271	-4.1638	110	1	1.1	0.9;
	3991	1	0	0	0	0	1	1.04272	-4.1632	110	1	1.1	0.9;
	4001	1	0	0	0	0	1	1.05062	-12.2761	110	1	1.1	0.9;
...
];

%% generator data
%	bus	Pg	Qg	Qmax	Qmin	Vg	mBase	status	Pmax	Pmin	Pc1	Pc2	Qc1min	Qc1max	Qc2min	Qc2max	ramp_agc	ramp_10	ramp_30	ramp_q	apf	mu_Pmax	mu_Pmin	mu_Qmax	mu_Qmin
mpc.gen = [
	10271	21	5.837	15	-7	1.05	34	1	21	5	0	0	0	0	0	0	0	0	0	0	0	0.0000	0.0000	0.0000	0.0000;
	10272	22	5.837	15	-7	1.05	34	1	22	5	0	0	0	0	0	0	0	0	0	0	0	0.0000	0.0000	0.0000	0.0000;
	10273	19	-2.507	15	-7	1.05	34	0	19	5	0	0	0	0	0	0	0	0	0	0	0	0.0000	0.0000	0.0000	0.0000;
	10274	24	5.837	15	-7	1.05	34	1	24	5	0	0	0	0	0	0	0	0	0	0	0	0.0000	0.0000	0.0000	0.0000;
	10275	2.321	0	0	0	1.05	8.35	1	7.5	0	0	0	0	0	0	0	0	0	0	0	0	0.0000	0.0000	0.0000	0.0000;
	10276	0.204	0	0	0	1.05	0.85	1	0.66	0	0	0	0	0	0	0	0	0	0	0	0	0.0000	0.0000	0.0000	0.0000;
	10470	300	-32.443	270	-170	1.04	500	1	443	222	0	0	0	0	0	0	0	0	0	0	0	0.0000	0.0000	0.0000	0.0000;
	10471	270	0	159	-75	1.075	318.8	0	270	40	0	0	0	0	0	0	0	0	0	0	0	0.0000	0.0000	0.0000	0.0000;
	10472	90	0	60	-30	1.075	100.9	0	90	13	0	0	0	0	0	0	0	0	0	0	0	0.0000	0.0000	0.0000	0.0000;
	10473	90	0	60	-30	1.075	100.9	0	90	13	0	0	0	0	0	0	0	0	0	0	0	0.0000	0.0000	0.0000	0.0000;
	10474	90	0	60	-30	1.075	100.9	0	90	13	0	0	0	0	0	0	0	0	0	0	0	0.0000	0.0000	0.0000	0.0000;
	10671	1.486	-1.94	-1.94	-1.94	1.04	4.8	1	4.8	0	0	0	0	0	0	0	0	0	0	0	0	0.0000	0.0000	0.0000	0.0000;
	10672	1.547	-2	-2	-2	1.04	6	1	5	0	0	0	0	0	0	0	0	0	0	0	0	0.0000	0.0000	0.0000	0.0000;
	10673	0.371	-0.48	-0.48	-0.48	1.05	1.2	1	1.2	0	0	0	0	0	0	0	0	0	0	0	0	0.0000	0.0000	0.0000	0.0000;
	10674	1.424	-1.77	-1.77	-2.3	1.04	4.6	1	4.6	0	0	0	0	0	0	0	0	0	0	0	0	0.0000	0.0000	0.0000	0.0000;
	11204	1	0	0	0	1	1.6	0	1	0	0	0	0	0	0	0	0	0	0	0	0	0.0000	0.0000	0.0000	0.0000;
	11271	7.799	0	0	0	1.04	28	1	25.2	0	0	0	0	0	0	0	0	0	0	0	0	0.0000	0.0000	0.0000	0.0000;
	11371	15.784	-20	20	-20	1.05	66	1	51	0	0	0	0	0	0	0	0	0	0	0	0	0.0000	0.0000	0.0000	0.0000;
	12371	9.749	-7	7	-7	1.05	32	1	31.5	0	0	0	0	0	0	0	0	0	0	0	0	0.0000	0.0000	0.0000	0.0000;
	12372	3.25	0	0	0	1.05	10	1	10.5	0	0	0	0	0	0	0	0	0	0	0	0	0.0000	0.0000	0.0000	0.0000;
	12571	6.019	0	0	0	1.05	25.05	1	19.45	0	0	0	0	0	0	0	0	0	0	0	0	0.0000	0.0000	0.0000	0.0000;
	12572	0.928	0.99	0.99	-0.99	1.05	3.34	1	3	0	0	0	0	0	0	0	0	0	0	0	0	0.0000	0.0000	0.0000	0.0000;
	12573	2.785	2.96	2.96	-2.96	1.05	10.02	1	9	0	0	0	0	0	0	0	0	0	0	0	0	0.0000	0.0000	0.0000	0.0000;
	12872	2.6	0	0	-2.76	1.05	9.2	1	8.4	0	0	0	0	0	0	0	0	0	0	0	0	0.0000	0.0000	0.0000	0.0000;
	12873	6.05	0	0	0	1.05	20.7	1	19.55	0	0	0	0	0	0	0	0	0	0	0	0	0.0000	0.0000	0.0000	0.0000;
	12874	2.631	0	0	0	1.05	8.5	1	8.5	0	0	0	0	0	0	0	0	0	0	0	0	0.0000	0.0000	0.0000	0.0000;
	13434	4.3	0	0	0	1	4.5	1	4.3	0	0	0	0	0	0	0	0	0	0	0	0	0.0000	0.0000	0.0000	0.0000;
	13471	0.204	0	0	0	1.05	0.66	1	0.66	0	0	0	0	0	0	0	0	0	0	0	0	0.0000	0.0000	0.0000	0.0000;
	13472	0.789	0	0	-0.84	1.05	2.7	1	2.55	0	0	0	0	0	0	0	0	0	0	0	0	0.0000	0.0000	0.0000	0.0000;
	13473	3.095	0	0	0	1.05	10	1	10	0	0	0	0	0	0	0	0	0	0	0	0	0.0000	0.0000	0.0000	0.0000;
	13474	1.857	0	0	0	1.05	6.25	1	6	0	0	0	0	0	0	0	0	0	0	0	0	0.0000	0.0000	0.0000	0.0000;
	13475	2.368	0	0	0	1.05	7.65	1	7.65	0	0	0	0	0	0	0	0	0	0	0	0	0.0000	0.0000	0.0000	0.0000;
	13476	3.683	0	0	0	1.05	11.5	1	11.9	0	0	0	0	0	0	0	0	0	0	0	0	0.0000	0.0000	0.0000	0.0000;
	13477	0.789	0	0	0	1.05	2.7	1	2.55	0	0	0	0	0	0	0	0	0	0	0	0	0.0000	0.0000	0.0000	0.0000;
	13479	1.052	0	0	0	1	3.4	1	3.4	0	0	0	0	0	0	0	0	0	0	0	0	0.0000	0.0000	0.0000	0.0000;
	14073	1.996	-2.4	-2.4	-2.4	1.04	7.611	1	6.45	0	0	0	0	0	0	0	0	0	0	0	0	0.0000	0.0000	0.0000	0.0000;
	14471	1.238	0	0	0	1.04	4	1	4	0	0	0	0	0	0	0	0	0	0	0	0	0.0000	0.0000	0.0000	0.0000;
	14472	0.085	0	0	0	1	0.85	1	0.85	0	0	0	0	0	0	0	0	0	0	0	0	0.0000	0.0000	0.0000	0.0000;
	14604	4.8	0	0	0	1.05	7	0	4.8	0	0	0	0	0	0	0	0	0	0	0	0	0.0000	0.0000	0.0000	0.0000;
	14871	0.526	0	0	0	1.05	4.6	1	1.7	0	0	0	0	0	0	0	0	0	0	0	0	0.0000	0.0000	0.0000	0.0000;
	15571	1.841	-1.96	1.96	-1.96	1	5.95	1	5.95	0	0	0	0	0	0	0	0	0	0	0	0	0.0000	0.0000	0.0000	0.0000;
	15572	5.571	-3.429	5.92	-5.92	1	18.75	1	18	0	0	0	0	0	0	0	0	0	0	0	0	0.0000	0.0000	0.0000	0.0000;
	15573	6.19	0	0	0	1.04	23	1	20	0	0	0	0	0	0	0	0	0	0	0	0	0.0000	0.0000	0.0000	0.0000;
	15771	0.613	-0.3	-0.3	-0.3	1.04	1.98	1	1.98	0	0	0	0	0	0	0	0	0	0	0	0	0.0000	0.0000	0.0000	0.0000;
	15772	0.928	-1.92	-1.92	-1.92	1.04	3	1	3	0	0	0	0	0	0	0	0	0	0	0	0	0.0000	0.0000	0.0000	0.0000;
	16371	1.052	0	0	0	1	3.4	1	3.4	0	0	0	0	0	0	0	0	0	0	0	0	0.0000	0.0000	0.0000	0.0000;
	16372	1.052	0	0	0	1	3.4	1	3.4	0	0	0	0	0	0	0	0	0	0	0	0	0.0000	0.0000	0.0000	0.0000;
	16373	2.104	0	0	0	1	6.8	1	6.8	0	0	0	0	0	0	0	0	0	0	0	0	0.0000	0.0000	0.0000	0.0000;
	16374	2.368	0	0	0	1	7.65	1	7.65	0	0	0	0	0	0	0	0	0	0	0	0	0.0000	0.0000	0.0000	0.0000;
	16375	1.226	0	0	0	1	4.25	1	3.96	0	0	0	0	0	0	0	0	0	0	0	0	0.0000	0.0000	0.0000	0.0000;
	16376	1.532	0	0	0	1	5.1	1	4.95	0	0	0	0	0	0	0	0	0	0	0	0	0.0000	0.0000	0.0000	0.0000;
	16377	2.785	0	0	0	1	9.2	1	9	0	0	0	0	0	0	0	0	0	0	0	0	0.0000	0.0000	0.0000	0.0000;
	16379	0.09	0	0	0	1	0.323	1	0.29	0	0	0	0	0	0	0	0	0	0	0	0	0.0000	0.0000	0.0000	0.0000;
	16571	11.698	0	0	0	1.05	40	1	37.8	0	0	0	0	0	0	0	0	0	0	0	0	0.0000	0.0000	0.0000	0.0000;
	16670	1.393	-1.159	0	-3.07	1	4.5	1	4.5	0	0	0	0	0	0	0	0	0	0	0	0	0.0000	0.0000	0.0000	0.0000;
	16671	1.052	0	0	0	1.04	3.4	1	3.4	0	0	0	0	0	0	0	0	0	0	0	0	0.0000	0.0000	0.0000	0.0000;
	16672	0.492	-0.56	-0.56	-0.56	1.04	1.7	1	1.59	0	0	0	0	0	0	0	0	0	0	0	0	0.0000	0.0000	0.0000	0.0000;
	16674	5.787	0	0	0	1.04	18.7	1	18.7	0	0	0	0	0	0	0	0	0	0	0	0	0.0000	0.0000	0.0000	0.0000;
	16675	2.476	-2.65	-2.65	-2.65	1.04	8	1	8	0	0	0	0	0	0	0	0	0	0	0	0	0.0000	0.0000	0.0000	0.0000;
	16873	8	7	7	-1	1.05	11.5	1	8	2	0	0	0	0	0	0	0	0	0	0	0	0.0000	0.0000	0.0000	0.0000;
	17073	22.5	3.499	23	-25	1.05	35.5	1	22.5	5	0	0	0	0	0	0	0	0	0	0	0	0.0000	0.0000	0.0000	0.0000;
	17074	22.5	3.499	23	-25	1.05	35.5	1	22.5	5	0	0	0	0	0	0	0	0	0	0	0	0.0000	0.0000	0.0000	0.0000;
	17075	0.613	-0.8	-0.8	-0.8	1	1.98	1	1.98	0	0	0	0	0	0	0	0	0	0	0	0	0.0000	0.0000	0.0000	0.0000;
	17077	0.006	0	0	0	1	1.2	1	0.02	0	0	0	0	0	0	0	0	0	0	0	0	0.0000	0.0000	0.0000	0.0000;
	17671	10	3.499	7	-3	1.05	12.5	1	10	3	0	0	0	0	0	0	0	0	0	0	0	0.0000	0.0000	0.0000	0.0000;
	17672	10	3.499	7	-3	1.05	12.5	1	10	3	0	0	0	0	0	0	0	0	0	0	0	0.0000	0.0000	0.0000	0.0000;
	18471	1.544	0	0	0	1.04	5.2	1	4.99	0	0	0	0	0	0	0	0	0	0	0	0	0.0000	0.0000	0.0000	0.0000;
	18472	0.774	0	0	-0.82	1	2.978	1	2.5	0	0	0	0	0	0	0	0	0	0	0	0	0.0000	0.0000	0.0000	0.0000;
	19081	0.789	0	0	0	1.04	2.55	1	2.55	0	0	0	0	0	0	0	0	0	0	0	0	0.0000	0.0000	0.0000	0.0000;
	19082	0.526	0	0	0	1.05	1.7	1	1.7	0	0	0	0	0	0	0	0	0	0	0	0	0.0000	0.0000	0.0000	0.0000;
	19083	1.544	0	0	0	1.04	6.9	1	4.99	0	0	0	0	0	0	0	0	0	0	0	0	0.0000	0.0000	0.0000	0.0000;
	19084	1.393	-1.5	-1.5	-1.5	1.04	4.6	1	4.5	0	0	0	0	0	0	0	0	0	0	0	0	0.0000	0.0000	0.0000	0.0000;
	19085	6.499	-7	-7	-7	1.04	23.824	1	21	0	0	0	0	0	0	0	0	0	0	0	0	0.0000	0.0000	0.0000	0.0000;
	19101	98.4	0	51	-36.17	1.075	108.24	0	98.4	34	0	0	0	0	0	0	0	0	0	0	0	0.0000	0.0000	0.0000	0.0000;
	19317	0	-6	6	-6	1.05	6	1	0	0	0	0	0	0	0	0	0	0	0	0	0	0.0000	0.0000	0.0000	0.0000;
	19371	7.35	0	0	0	1.05	29.78	1	23.75	0	0	0	0	0	0	0	0	0	0	0	0	0.0000	0.0000	0.0000	0.0000;
	19372	3.42	0	0	0	1.05	11.05	1	11.05	0	0	0	0	0	0	0	0	0	0	0	0	0.0000	0.0000	0.0000	0.0000;
	19471	133	81.633	94	-50	1.075	153	1	133.5	60	0	0	0	0	0	0	0	0	0	0	0	0.0000	0.0000	0.0000	0.0000;
	19472	58.274	0	38	-23	1.075	66.625	0	58.274	19.7	0	0	0	0	0	0	0	0	0	0	0	0.0000	0.0000	0.0000	0.0000;
	19473	58.274	0	40	-23	1.075	66.625	0	58.274	19.7	0	0	0	0	0	0	0	0	0	0	0	0.0000	0.0000	0.0000	0.0000;
	19601	0.585	0	0	0	1	6.5	1	5.85	0	0	0	0	0	0	0	0	0	0	0	0	0.0000	0.0000	0.0000	0.0000;
	19771	13.153	0	0	0	1.05	46.875	1	42.5	0	0	0	0	0	0	0	0	0	0	0	0	0.0000	0.0000	0.0000	0.0000;
	19772	2.631	-0.422	2.79	-2.79	1.05	8.5	1	8.5	0	0	0	0	0	0	0	0	0	0	0	0	0.0000	0.0000	0.0000	0.0000;
	19773	9.284	-1.487	9.86	-9.86	1.05	38.714	1	30	0	0	0	0	0	0	0	0	0	0	0	0	0.0000	0.0000	0.0000	0.0000;
	19971	6.19	-6.7	6.7	-6.7	1.05	20.7	1	20	0	0	0	0	0	0	0	0	0	0	0	0	0.0000	0.0000	0.0000	0.0000;
	19972	0.712	0	0	0	1.05	2.3	1	2.3	0	0	0	0	0	0	0	0	0	0	0	0	0.0000	0.0000	0.0000	0.0000;
	19973	0.712	0	0	0	1.05	2.3	1	2.3	0	0	0	0	0	0	0	0	0	0	0	0	0.0000	0.0000	0.0000	0.0000;
	19974	4.983	-4	4	-4	1.05	16.1	1	16.1	0	0	0	0	0	0	0	0	0	0	0	0	0.0000	0.0000	0.0000	0.0000;
	21071	0.155	0	0	0	1.05	0.85	1	0.5	0	0	0	0	0	0	0	0	0	0	0	0	0.0000	0.0000	0.0000	0.0000;
	21371	8.82	-9.5	9.5	-9.5	1.05	31.73	1	28.5	0	0	0	0	0	0	0	0	0	0	0	0	0.0000	0.0000	0.0000	0.0000;
	21372	5.416	-5.8	5.8	-5.8	1.05	23.38	1	17.5	0	0	0	0	0	0	0	0	0	0	0	0	0.0000	0.0000	0.0000	0.0000;
	21871	0.526	0	0	0	1.01	1.7	1	1.7	0	0	0	0	0	0	0	0	0	0	0	0	0.0000	0.0000	0.0000	0.0000;
	21872	0.774	-0.99	-0.99	-1.28	1.01	2.7	1	2.5	0	0	0	0	0	0	0	0	0	0	0	0	0.0000	0.0000	0.0000	0.0000;
	21873	1.274	0	0	0	1	1.6	0	1.274	0	0	0	0	0	0	0	0	0	0	0	0	0.0000	0.0000	0.0000	0.0000;
	22273	1.393	-1.074	0	-1.48	1	4	1	4.5	0	0	0	0	0	0	0	0	0	0	0	0	0.0000	0.0000	0.0000	0.0000;
	22274	1.838	-2.4	-2.4	-2.4	1	5.94	1	5.94	0	0	0	0	0	0	0	0	0	0	0	0	0.0000	0.0000	0.0000	0.0000;
	22275	1.315	0	0	0	1	4.25	1	4.25	0	0	0	0	0	0	0	0	0	0	0	0	0.0000	0.0000	0.0000	0.0000;
	22276	1.841	0	0	0	1	6.68	1	5.95	0	0	0	0	0	0	0	0	0	0	0	0	0.0000	0.0000	0.0000	0.0000;
	22278	1.43	-1	-1	-1	1	4.62	1	4.62	0	0	0	0	0	0	0	0	0	0	0	0	0.0000	0.0000	0.0000	0.0000;
	22292	6	0	0	0	1	6	0	6	0	0	0	0	0	0	0	0	0	0	0	0	0.0000	0.0000	0.0000	0.0000;
	22371	18.414	0	0	0	1.05	59.5	1	59.5	0	0	0	0	0	0	0	0	0	0	0	0	0.0000	0.0000	0.0000	0.0000;
	22471	0.789	0	0	0	1.04	2.55	1	2.55	0	0	0	0	0	0	0	0	0	0	0	0	0.0000	0.0000	0.0000	0.0000;
	22472	1.315	0	0	0	1.04	4.25	1	4.25	0	0	0	0	0	0	0	0	0	0	0	0	0.0000	0.0000	0.0000	0.0000;
	22473	1.315	-1.5	-1.5	-1.5	1.01	4.25	1	4.25	0	0	0	0	0	0	0	0	0	0	0	0	0.0000	0.0000	0.0000	0.0000;
	22671	52.1	0	32.6	-22.7	1.05	62	0	52.1	1.2	0	0	0	0	0	0	0	0	0	0	0	0.0000	0.0000	0.0000	0.0000;
	22672	52.1	0	32.6	-22.7	1.05	62	0	52.1	1.2	0	0	0	0	0	0	0	0	0	0	0	0.0000	0.0000	0.0000	0.0000;
	22871	0.743	-0.84	-0.84	-1.09	1.01	2.4	1	2.4	0	0	0	0	0	0	0	0	0	0	0	0	0.0000	0.0000	0.0000	0.0000;
	25604	1.6	0	0	0	1	1.7	0	1.6	0	0	0	0	0	0	0	0	0	0	0	0	0.0000	0.0000	0.0000	0.0000;
	26771	8.047	-10	10	-10	1.05	26	1	26	0	0	0	0	0	0	0	0	0	0	0	0	0.0000	0.0000	0.0000	0.0000;
	26772	0.6	0	0	0	1.075	6	1	6	6	0	0	0	0	0	0	0	0	0	0	0	0.0000	0.0000	0.0000	0.0000;
	26773	6.809	-10	10	-10	1.05	22	1	22	0	0	0	0	0	0	0	0	0	0	0	0	0.0000	0.0000	0.0000	0.0000;
	26774	0.6	0	0	0	1.075	6	1	6	6	0	0	0	0	0	0	0	0	0	0	0	0.0000	0.0000	0.0000	0.0000;
	27071	0.248	0	0	0	1	0.8	1	0.8	0	0	0	0	0	0	0	0	0	0	0	0	0.0000	0.0000	0.0000	0.0000;
	27204	4	-1	1	-1	1.04	5	1	4	0	0	0	0	0	0	0	0	0	0	0	0	0.0000	0.0000	0.0000	0.0000;
	27361	0	-1.855	12.3	-12.3	1.05	12.3	1	0	0	0	0	0	0	0	0	0	0	0	0	0	0.0000	0.0000	0.0000	0.0000;
	27371	3.961	0	0	0	1.05	14.45	1	12.8	0	0	0	0	0	0	0	0	0	0	0	0	0.0000	0.0000	0.0000	0.0000;
	27372	5.261	0	0	0	1.05	18.75	1	17	0	0	0	0	0	0	0	0	0	0	0	0	0.0000	0.0000	0.0000	0.0000;
	27374	1.857	-1.97	-1.97	-1.97	1.05	6.25	1	6	0	0	0	0	0	0	0	0	0	0	0	0	0.0000	0.0000	0.0000	0.0000;
	27471	57	0	42	-3	1.075	75	0	57	25	0	0	0	0	0	0	0	0	0	0	0	0.0000	0.0000	0.0000	0.0000;
	27472	51.8	0	40	-3	1.075	75	0	51.8	25	0	0	0	0	0	0	0	0	0	0	0	0.0000	0.0000	0.0000	0.0000;
	27473	121	0	82	-48	1.075	150	0	121	30	0	0	0	0	0	0	0	0	0	0	0	0.0000	0.0000	0.0000	0.0000;
	27474	235	119.699	285	-182	1.075	570.6	1	469.5	235	0	0	0	0	0	0	0	0	0	0	0	0.0000	0.0000	0.0000	0.0000;
	27771	12.758	-1.96	13	-13.61	1.05	41.4	1	41.225	0	0	0	0	0	0	0	0	0	0	0	0	0.0000	0.0000	0.0000	0.0000;
	27772	3.095	-2	-2	-2	1	11.912	1	10	0	0	0	0	0	0	0	0	0	0	0	0	0.0000	0.0000	0.0000	0.0000;
	27773	1.547	-1	-1	-1	1	4.6	1	5	0	0	0	0	0	0	0	0	0	0	0	0	0.0000	0.0000	0.0000	0.0000;
	27774	5.571	-3	-3	-3	1.05	18.4	1	18	0	0	0	0	0	0	0	0	0	0	0	0	0.0000	0.0000	0.0000	0.0000;
	27871	1.021	-0.7	-0.7	-0.7	1.04	3.3	1	3.3	0	0	0	0	0	0	0	0	0	0	0	0	0.0000	0.0000	0.0000	0.0000;
	28071	4.642	-6	-6	-6	1.05	15	1	15	0	0	0	0	0	0	0	0	0	0	0	0	0.0000	0.0000	0.0000	0.0000;
	28271	0.928	-1.2	-1.2	-1.2	1.04	3.34	1	3	0	0	0	0	0	0	0	0	0	0	0	0	0.0000	0.0000	0.0000	0.0000;
	28571	300	-36.609	282.1	-190	1.04	535.5	1	450.5	110.1	0	0	0	0	0	0	0	0	0	0	0	0.0000	0.0000	0.0000	0.0000;
	28871	1.857	-1.97	1.97	-1.97	1	6.68	1	6	0	0	0	0	0	0	0	0	0	0	0	0	0.0000	0.0000	0.0000	0.0000;
	28872	3.25	0	0	0	1	13.8	1	10.5	0	0	0	0	0	0	0	0	0	0	0	0	0.0000	0.0000	0.0000	0.0000;
	28873	5.106	-5.42	5.42	-5.42	1	18.4	1	16.5	0	0	0	0	0	0	0	0	0	0	0	0	0.0000	0.0000	0.0000	0.0000;
	28874	8.047	0	0	0	1	27.6	1	26	0	0	0	0	0	0	0	0	0	0	0	0	0.0000	0.0000	0.0000	0.0000;
	29671	110	22.903	107	-53	1.075	150	1	123	40	0	0	0	0	0	0	0	0	0	0	0	0.0000	0.0000	0.0000	0.0000;
	29672	220	44.025	181	-87	1.075	288	1	236.2	138	0	0	0	0	0	0	0	0	0	0	0	0.0000	0.0000	0.0000	0.0000;
	29673	300	103.232	255	-170	1.075	473	1	400	194	0	0	0	0	0	0	0	0	0	0	0	0.0000	0.0000	0.0000	0.0000;
	30671	15	13	13	-4	1.05	21.4	1	15	4	0	0	0	0	0	0	0	0	0	0	0	0.0000	0.0000	0.0000	0.0000;
	30671	4	3	3	-1	1.05	5.7	1	4	1	0	0	0	0	0	0	0	0	0	0	0	0.0000	0.0000	0.0000	0.0000;
	31071	0.789	0	0	0	1.01	2.55	1	2.55	0	0	0	0	0	0	0	0	0	0	0	0	0.0000	0.0000	0.0000	0.0000;
	31074	0.789	0	0	0	1.04	2.55	1	2.55	0	0	0	0	0	0	0	0	0	0	0	0	0.0000	0.0000	0.0000	0.0000;
	31271	300	295	295	-100	1.075	500	1	409.9	163	0	0	0	0	0	0	0	0	0	0	0	0.0000	0.0000	0.0000	0.0000;
	32404	4.26	0	1	-1	1.04	4.8	0	4.26	0	0	0	0	0	0	0	0	0	0	0	0	0.0000	0.0000	0.0000	0.0000;
	32570	13.726	-4.6	4.6	-4.6	1	46.875	1	44.35	0	0	0	0	0	0	0	0	0	0	0	0	0.0000	0.0000	0.0000	0.0000;
	32576	3.466	-4.172	0	-5.03	1	11.2	1	11.2	0	0	0	0	0	0	0	0	0	0	0	0	0.0000	0.0000	0.0000	0.0000;
	32577	1.114	-1.315	0	-5.03	1	3.6	1	3.6	0	0	0	0	0	0	0	0	0	0	0	0	0.0000	0.0000	0.0000	0.0000;
	32578	1.25	0	0	0	1	1.25	0	1.25	0	0	0	0	0	0	0	0	0	0	0	0	0.0000	0.0000	0.0000	0.0000;
	32604	7.5	0	1	-1	1.05	8.5	0	7.5	2	0	0	0	0	0	0	0	0	0	0	0	0.0000	0.0000	0.0000	0.0000;
	32604	0.18	0	0	0	1.05	0.2	0	0.18	0	0	0	0	0	0	0	0	0	0	0	0	0.0000	0.0000	0.0000	0.0000;
	33071	1.393	-1.389	0	-1.48	1	4	1	4.5	0	0	0	0	0	0	0	0	0	0	0	0	0.0000	0.0000	0.0000	0.0000;
	33072	2.894	0	0	0	1	9.35	1	9.35	0	0	0	0	0	0	0	0	0	0	0	0	0.0000	0.0000	0.0000	0.0000;
	33971	26.925	-2.05	28.6	-28.6	1.05	104.23	1	87	0	0	0	0	0	0	0	0	0	0	0	0	0.0000	0.0000	0.0000	0.0000;
	35071	1.424	-1.64	-1.64	-2.13	1.01	4.6	1	4.6	0	0	0	0	0	0	0	0	0	0	0	0	0.0000	0.0000	0.0000	0.0000;
	35074	103	-6.99	60	-39	1.05	121.1	1	103.3	70	0	0	0	0	0	0	0	0	0	0	0	0.0000	0.0000	0.0000	0.0000;
	35871	0.789	0	0	0	1.04	2.55	1	2.55	0	0	0	0	0	0	0	0	0	0	0	0	0.0000	0.0000	0.0000	0.0000;
	35872	0.758	0	0	0	1.04	2.55	1	2.45	0	0	0	0	0	0	0	0	0	0	0	0	0.0000	0.0000	0.0000	0.0000;
	35873	0.99	0	0	0	1.04	3.2	1	3.2	0	0	0	0	0	0	0	0	0	0	0	0	0.0000	0.0000	0.0000	0.0000;
	35875	4.642	-6	-6	-6	1.04	17.7	1	15	0	0	0	0	0	0	0	0	0	0	0	0	0.0000	0.0000	0.0000	0.0000;
	35876	3.677	-4.8	-4.8	-4.8	1.04	11.88	1	11.88	0	0	0	0	0	0	0	0	0	0	0	0	0.0000	0.0000	0.0000	0.0000;
	35877	1.544	0	0	0	1.04	5.4	1	4.99	0	0	0	0	0	0	0	0	0	0	0	0	0.0000	0.0000	0.0000	0.0000;
	36271	11.141	-4.319	12	-12	1.05	36	1	36	0	0	0	0	0	0	0	0	0	0	0	0	0.0000	0.0000	0.0000	0.0000;
	36272	1.9	-2.699	7.5	-75	1.05	20	1	19	0	0	0	0	0	0	0	0	0	0	0	0	0.0000	0.0000	0.0000	0.0000;
	36471	4.472	0	0	0	1.05	15	1	14.45	0	0	0	0	0	0	0	0	0	0	0	0	0.0000	0.0000	0.0000	0.0000;
	36472	1.238	-1.31	-1.31	-1.7	1.04	4.6	1	4	0	0	0	0	0	0	0	0	0	0	0	0	0.0000	0.0000	0.0000	0.0000;
	36473	1.424	0	0	0	1	4.6	1	4.6	0	0	0	0	0	0	0	0	0	0	0	0	0.0000	0.0000	0.0000	0.0000;
	36474	1.114	-1.18	-1.18	-1.53	1.04	4	1	3.6	0	0	0	0	0	0	0	0	0	0	0	0	0.0000	0.0000	0.0000	0.0000;
	36475	1.238	-1.2	-1.2	-1.2	1.04	4.6	1	4	0	0	0	0	0	0	0	0	0	0	0	0	0.0000	0.0000	0.0000	0.0000;
	36476	4.58	2.979	4	-4	1.04	17.868	1	14.8	0	0	0	0	0	0	0	0	0	0	0	0	0.0000	0.0000	0.0000	0.0000;
	38071	0.495	-0.56	-0.56	-0.56	1.01	1.6	1	1.6	0	0	0	0	0	0	0	0	0	0	0	0	0.0000	0.0000	0.0000	0.0000;
	38244	1	0	0	0	1	6.5	0	1	0	0	0	0	0	0	0	0	0	0	0	0	0.0000	0.0000	0.0000	0.0000;
	38271	3.25	0	0	0	1.04	11.69	1	10.5	0	0	0	0	0	0	0	0	0	0	0	0	0.0000	0.0000	0.0000	0.0000;
	38272	1.393	0	0	0	1.04	5.01	1	4.5	0	0	0	0	0	0	0	0	0	0	0	0	0.0000	0.0000	0.0000	0.0000;
	38273	2.321	0	0	0	1.05	8.35	1	7.5	0	0	0	0	0	0	0	0	0	0	0	0	0.0000	0.0000	0.0000	0.0000;
	38870	7.83	0	0	0	1.04	25.3	1	25.3	0	0	0	0	0	0	0	0	0	0	0	0	0.0000	0.0000	0.0000	0.0000;
	38871	2.708	-1.181	0	-2.88	1	10	1	8.75	0	0	0	0	0	0	0	0	0	0	0	0	0.0000	0.0000	0.0000	0.0000;
	39471	230	-5.613	176	-112	1.05	359	1	302	99	0	0	0	0	0	0	0	0	0	0	0	0.0000	0.0000	0.0000	0.0000;
	39472	230	50.325	176	-112	1.05	359	1	303	99	0	0	0	0	0	0	0	0	0	0	0	0.0000	0.0000	0.0000	0.0000;
	39473	230	-5.613	176	-112	1.05	359	1	302	99	0	0	0	0	0	0	0	0	0	0	0	0.0000	0.0000	0.0000	0.0000;
	39675	90	0	60	-19	1.05	100.9	0	90	60	0	0	0	0	0	0	0	0	0	0	0	0.0000	0.0000	0.0000	0.0000;
	40471	1.857	0	0	0	1.05	6.9	1	6	0	0	0	0	0	0	0	0	0	0	0	0	0.0000	0.0000	0.0000	0.0000;
	40771	16.372	0	0	0	1.05	52.9	1	52.9	0	0	0	0	0	0	0	0	0	0	0	0	0.0000	0.0000	0.0000	0.0000;
	40772	5.589	0	0	0	1.05	19.5	1	18.06	0	0	0	0	0	0	0	0	0	0	0	0	0.0000	0.0000	0.0000	0.0000;
	40773	4.333	0	0	0	1.05	16.1	1	14	0	0	0	0	0	0	0	0	0	0	0	0	0.0000	0.0000	0.0000	0.0000;
	42271	1.547	-1.64	-1.64	-2.13	1.01	6	1	4.999	0	0	0	0	0	0	0	0	0	0	0	0	0.0000	0.0000	0.0000	0.0000;
	42404	15	0	5	0	1	20	0	15	6	0	0	0	0	0	0	0	0	0	0	0	0.0000	0.0000	0.0000	0.0000;
	42404	15	0	5	0	1	20	0	15	6	0	0	0	0	0	0	0	0	0	0	0	0.0000	0.0000	0.0000	0.0000;
	42404	15	0	5	0	1	20	0	15	6	0	0	0	0	0	0	0	0	0	0	0	0.0000	0.0000	0.0000	0.0000;
	42474	118	0	55	-20	1.075	132.1	0	118	40	0	0	0	0	0	0	0	0	0	0	0	0.0000	0.0000	0.0000	0.0000;
	42475	109.5	0	55	-20	1.075	132.1	0	109.5	20	0	0	0	0	0	0	0	0	0	0	0	0.0000	0.0000	0.0000	0.0000;
	42501	102	0	90	-47	1.075	140	0	102	35	0	0	0	0	0	0	0	0	0	0	0	0.0000	0.0000	0.0000	0.0000;
	42672	0.755	-0.871	-0.83	-1.07	1.01	2.55	1	2.44	0	0	0	0	0	0	0	0	0	0	0	0	0.0000	0.0000	0.0000	0.0000;
	42673	1.207	-1.3	-1.3	-1.3	1.01	4.6	1	3.9	0	0	0	0	0	0	0	0	0	0	0	0	0.0000	0.0000	0.0000	0.0000;
	42674	0.789	0	0	0	1.01	2.55	1	2.55	0	0	0	0	0	0	0	0	0	0	0	0	0.0000	0.0000	0.0000	0.0000;
	43671	2.135	0	0	0	1	6.9	1	6.9	0	0	0	0	0	0	0	0	0	0	0	0	0.0000	0.0000	0.0000	0.0000;
	43672	0.712	0	0	0	1	2.3	1	2.3	0	0	0	0	0	0	0	0	0	0	0	0	0.0000	0.0000	0.0000	0.0000;
	43774	10.569	-10	10	-10	1.05	36.8	1	34.15	0	0	0	0	0	0	0	0	0	0	0	0	0.0000	0.0000	0.0000	0.0000;
	44471	15	-3.527	9	-10	1.05	18.8	1	15	5	0	0	0	0	0	0	0	0	0	0	0	0.0000	0.0000	0.0000	0.0000;
	44471	15	-3.527	9	-10	1.05	18.8	1	15	5	0	0	0	0	0	0	0	0	0	0	0	0.0000	0.0000	0.0000	0.0000;
	44471	4	-0.94	3	-1	1.05	5	1	4	1	0	0	0	0	0	0	0	0	0	0	0	0.0000	0.0000	0.0000	0.0000;
	46801	6.5	0	0	0	1	6.75	0	6.5	2	0	0	0	0	0	0	0	0	0	0	0	0.0000	0.0000	0.0000	0.0000;
...
];

%% branch data
%	fbus	tbus	r	x	b	rateA	rateB	rateC	ratio	angle	status	angmin	angmax	Pf	Qf	Pt	Qt	mu_Sf	mu_St	mu_angmin	mu_angmax
mpc.branch = [
	11	42404	0.0036	0.00391	0.00207	100	100	110	0	0	1	-360	360	0.0000	0.0000	0.0000	0.0000	0.0000	0.0000	0.0000	0.0000;
	12	25404	0.00534	0.00795	0.00407	9999	9999	10998.9	0	0	1	-360	360	0.0000	0.0000	0.0000	0.0000	0.0000	0.0000	0.0000	0.0000;
	12	25404	0.00594	0.00866	0.00435	9999	9999	10998.9	0	0	1	-360	360	0.0000	0.0000	0.0000	0.0000	0.0000	0.0000	0.0000	0.0000;
	12	46504	0.02132	0.02114	0.00329	9999	9999	10998.9	0	0	1	-360	360	0.0000	0.0000	0.0000	0.0000	0.0000	0.0000	0.0000	0.0000;
	12	46504	0.01937	0.01703	0.00256	9999	9999	10998.9	0	0	1	-360	360	0.0000	0.0000	0.0000	0.0000	0.0000	0.0000	0.0000	0.0000;
	1021	2121	0.0286	0.067	0.0059	128	128	140.8	0	0	1	-360	360	0.0000	0.0000	0.0000	0.0000	0.0000	0.0000	0.0000	0.0000;
	1021	2361	0.0513	0.1172	0.0106	128	128	140.8	0	0	1	-360	360	0.0000	0.0000	0.0000	0.0000	0.0000	0.0000	0.0000	0.0000;
	1021	3541	0.0071	0.037	0.0116	125	125	137.5	0	0	1	-360	360	0.0000	0.0000	0.0000	0.0000	0.0000	0.0000	0.0000	0.0000;
	1021	10210	0	0.0001	0	999	999	1098.9	0	0	1	-360	360	0.0000	0.0000	0.0000	0.0000	0.0000	0.0000	0.0000	0.0000;
	1021	10261	0	0.0001	0	128	128	140.8	0	0	1	-360	360	0.0000	0.0000	0.0000	0.0000	0.0000	0.0000	0.0000	0.0000;
	1041	5481	0.0049	0.0107	0.001	128	128	140.8	0	0	1	-360	360	0.0000	0.0000	0.0000	0.0000	0.0000	0.0000	0.0000	0.0000;
	1042	1052	0	0.0001	0	9999	9999	10998.9	0	0	1	-360	360	0.0000	0.0000	0.0000	0.0000	0.0000	0.0000	0.0000	0.0000;
	1042	1062	0	0.0001	0	593	593	652.3	0	0	1	-360	360	0.0000	0.0000	0.0000	0.0000	0.0000	0.0000	0.0000	0.0000;
	1042	1072	0.0001	0.0006	0.0384	593	593	652.3	0	0	1	-360	360	0.0000	0.0000	0.0000	0.0000	0.0000	0.0000	0.0000	0.0000;
	1042	3202	0.003	0.0222	0.0335	534	534	587.4	0	0	1	-360	360	0.0000	0.0000	0.0000	0.0000	0.0000	0.0000	0.0000	0.0000;
	1042	4722	0.0012	0.0078	0.2591	534	534	587.4	0	0	1	-360	360	0.0000	0.0000	0.0000	0.0000	0.0000	0.0000	0.0000	0.0000;
	1042	35771	0.0001	0.0004	0.0265	593	593	652.3	0	0	1	-360	360	0.0000	0.0000	0.0000	0.0000	0.0000	0.0000	0.0000	0.0000;
	1052	1062	0	0.0001	0	999	999	1098.9	0	0	1	-360	360	0.0000	0.0000	0.0000	0.0000	0.0000	0.0000	0.0000	0.0000;
	1052	2852	0.0002	0.0015	0.1035	593	593	652.3	0	0	1	-360	360	0.0000	0.0000	0.0000	0.0000	0.0000	0.0000	0.0000	0.0000;
	1052	3202	0.003	0.0222	0.0335	534	534	587.4	0	0	1	-360	360	0.0000	0.0000	0.0000	0.0000	0.0000	0.0000	0.0000	0.0000;
	1061	10619	0.0004	0.0008	0.0001	128	128	140.8	0	0	1	-360	360	0.0000	0.0000	0.0000	0.0000	0.0000	0.0000	0.0000	0.0000;
	1062	1072	0	0.0001	0	999	999	1098.9	0	0	1	-360	360	0.0000	0.0000	0.0000	0.0000	0.0000	0.0000	0.0000	0.0000;
	1071	2231	0.0125	0.0276	0.0026	128	128	140.8	0	0	1	-360	360	0.0000	0.0000	0.0000	0.0000	0.0000	0.0000	0.0000	0.0000;
	1071	2361	0.0594	0.1314	0.0123	128	128	140.8	0	0	1	-360	360	0.0000	0.0000	0.0000	0.0000	0.0000	0.0000	0.0000	0.0000;
	1071	4941	0.0718	0.1589	0.0148	128	128	140.8	0	0	1	-360	360	0.0000	0.0000	0.0000	0.0000	0.0000	0.0000	0.0000	0.0000;
	1081	32810	0.0039	0.0123	0.0035	68	112	123.2	0	0	1	-360	360	0.0000	0.0000	0.0000	0.0000	0.0000	0.0000	0.0000	0.0000;
	1101	2161	0.0031	0.0069	0.0006	45	128	140.8	0	0	1	-360	360	0.0000	0.0000	0.0000	0.0000	0.0000	0.0000	0.0000	0.0000;
	1121	1301	0.0102	0.0787	0.0071	166	166	182.6	0	0	1	-360	360	0.0000	0.0000	0.0000	0.0000	0.0000	0.0000	0.0000	0.0000;
	1121	1541	0.0207	0.0952	0.0102	137	219	240.9	0	0	1	-360	360	0.0000	0.0000	0.0000	0.0000	0.0000	0.0000	0.0000	0.0000;
	1121	4901	0.0035	0.0077	0.0008	57	57	62.7	0	0	1	-360	360	0.0000	0.0000	0.0000	0.0000	0.0000	0.0000	0.0000	0.0000;
	1122	1742	0.0062	0.0462	0.0697	534	534	587.4	0	0	1	-360	360	0.0000	0.0000	0.0000	0.0000	0.0000	0.0000	0.0000	0.0000;
	1122	3642	0.0046	0.0338	0.051	435	534	587.4	0	0	1	-360	360	0.0000	0.0000	0.0000	0.0000	0.0000	0.0000	0.0000	0.0000;
	1131	1151	0	0.0001	0	219	219	240.9	0	0	1	-360	360	0.0000	0.0000	0.0000	0.0000	0.0000	0.0000	0.0000	0.0000;
	1131	2131	0.005	0.0105	0.0703	140	140	154	0	0	1	-360	360	0.0000	0.0000	0.0000	0.0000	0.0000	0.0000	0.0000	0.0000;
	1131	5261	0.007	0.0358	0.0039	219	219	240.9	0	0	1	-360	360	0.0000	0.0000	0.0000	0.0000	0.0000	0.0000	0.0000	0.0000;
	1141	1911	0.0016	0.0034	0.0226	140	140	154	0	0	1	-360	360	0.0000	0.0000	0.0000	0.0000	0.0000	0.0000	0.0000	0.0000;
	1141	3501	0.054	0.123	0.0116	128	128	140.8	0	0	1	-360	360	0.0000	0.0000	0.0000	0.0000	0.0000	0.0000	0.0000	0.0000;
	1141	4941	0.0135	0.0696	0.0113	137	219	240.9	0	0	1	-360	360	0.0000	0.0000	0.0000	0.0000	0.0000	0.0000	0.0000	0.0000;
	1141	11461	0	0.0001	0	128	128	140.8	0	0	1	-360	360	0.0000	0.0000	0.0000	0.0000	0.0000	0.0000	0.0000	0.0000;
	1161	1781	0.001	0.002	0.0011	96	96	105.6	0	0	1	-360	360	0.0000	0.0000	0.0000	0.0000	0.0000	0.0000	0.0000	0.0000;
	1161	3901	0.0173	0.0894	0.0097	219	219	240.9	0	0	1	-360	360	0.0000	0.0000	0.0000	0.0000	0.0000	0.0000	0.0000	0.0000;
	1161	5051	0.0006	0.0012	0.0061	131	131	144.1	0	0	1	-360	360	0.0000	0.0000	0.0000	0.0000	0.0000	0.0000	0.0000	0.0000;
	1161	5071	0.0006	0.0012	0.0061	131	131	144.1	0	0	1	-360	360	0.0000	0.0000	0.0000	0.0000	0.0000	0.0000	0.0000	0.0000;
	1161	17810	0.001	0.0021	0.0012	96	96	105.6	0	0	1	-360	360	0.0000	0.0000	0.0000	0.0000	0.0000	0.0000	0.0000	0.0000;
	1161	51410	0.0214	0.1105	0.012	219	219	240.9	0	0	1	-360	360	0.0000	0.0000	0.0000	0.0000	0.0000	0.0000	0.0000	0.0000;
	1181	1861	0.0644	0.1424	0.0133	128	128	140.8	0	0	1	-360	360	0.0000	0.0000	0.0000	0.0000	0.0000	0.0000	0.0000	0.0000;
	1181	2821	0.0193	0.0994	0.0108	219	219	240.9	0	0	1	-360	360	0.0000	0.0000	0.0000	0.0000	0.0000	0.0000	0.0000	0.0000;
	1181	4221	0.0381	0.1969	0.0214	128	128	140.8	0	0	1	-360	360	0.0000	0.0000	0.0000	0.0000	0.0000	0.0000	0.0000	0.0000;
	1181	4961	0.0292	0.0645	0.006	110	110	121	0	0	1	-360	360	0.0000	0.0000	0.0000	0.0000	0.0000	0.0000	0.0000	0.0000;
	1181	4961	0.0148	0.0763	0.0097	219	219	240.9	0	0	1	-360	360	0.0000	0.0000	0.0000	0.0000	0.0000	0.0000	0.0000	0.0000;
	1201	2561	0.0047	0.0101	0.0548	131	131	144.1	0	0	1	-360	360	0.0000	0.0000	0.0000	0.0000	0.0000	0.0000	0.0000	0.0000;
	1201	3781	0.0026	0.0055	0.0298	131	131	144.1	0	0	1	-360	360	0.0000	0.0000	0.0000	0.0000	0.0000	0.0000	0.0000	0.0000;
	1221	1901	0.0389	0.086	0.008	128	128	140.8	0	0	1	-360	360	0.0000	0.0000	0.0000	0.0000	0.0000	0.0000	0.0000	0.0000;
	1221	4481	0.0414	0.0915	0.0086	128	128	140.8	0	0	1	-360	360	0.0000	0.0000	0.0000	0.0000	0.0000	0.0000	0.0000	0.0000;
	1231	1841	0.0111	0.03	0.1366	68	116	127.6	0	0	1	-360	360	0.0000	0.0000	0.0000	0.0000	0.0000	0.0000	0.0000	0.0000;
	1251	2361	0.0373	0.0826	0.0077	128	128	140.8	0	0	1	-360	360	0.0000	0.0000	0.0000	0.0000	0.0000	0.0000	0.0000	0.0000;
	1251	52219	0.0305	0.0674	0.0063	128	128	140.8	0	0	1	-360	360	0.0000	0.0000	0.0000	0.0000	0.0000	0.0000	0.0000	0.0000;
	1271	2041	0.0106	0.0546	0.006	219	219	240.9	0	0	1	-360	360	0.0000	0.0000	0.0000	0.0000	0.0000	0.0000	0.0000	0.0000;
	1271	2181	0.0126	0.065	0.0071	219	219	240.9	0	0	1	-360	360	0.0000	0.0000	0.0000	0.0000	0.0000	0.0000	0.0000	0.0000;
	1281	2221	0.0426	0.0943	0.0098	68	128	140.8	0	0	1	-360	360	0.0000	0.0000	0.0000	0.0000	0.0000	0.0000	0.0000	0.0000;
	1301	17411	0.0148	0.1159	0.0104	166	166	182.6	0	0	1	-360	360	0.0000	0.0000	0.0000	0.0000	0.0000	0.0000	0.0000	0.0000;
	1321	13219	0.0006	0.0017	0.0002	166	166	182.6	0	0	1	-360	360	0.0000	0.0000	0.0000	0.0000	0.0000	0.0000	0.0000	0.0000;
	1341	1701	0.0533	0.1178	0.011	128	128	140.8	0	0	1	-360	360	0.0000	0.0000	0.0000	0.0000	0.0000	0.0000	0.0000	0.0000;
	1341	3581	0.0719	0.2302	0.0235	166	166	182.6	0	0	1	-360	360	0.0000	0.0000	0.0000	0.0000	0.0000	0.0000	0.0000	0.0000;
	1351	4081	0.0121	0.0367	0.031	124	124	136.4	0	0	1	-360	360	0.0000	0.0000	0.0000	0.0000	0.0000	0.0000	0.0000	0.0000;
	1351	4201	0.0073	0.0214	0.0295	124	124	136.4	0	0	1	-360	360	0.0000	0.0000	0.0000	0.0000	0.0000	0.0000	0.0000	0.0000;
	1361	2001	0.0312	0.0751	0.0073	221	221	243.1	0	0	1	-360	360	0.0000	0.0000	0.0000	0.0000	0.0000	0.0000	0.0000	0.0000;
	1361	2161	0.0071	0.0368	0.004	219	219	240.9	0	0	1	-360	360	0.0000	0.0000	0.0000	0.0000	0.0000	0.0000	0.0000	0.0000;
	1381	1391	0	0.0001	0	166	166	182.6	0	0	1	-360	360	0.0000	0.0000	0.0000	0.0000	0.0000	0.0000	0.0000	0.0000;
	1381	4721	0.0027	0.0059	0.0006	99	99	108.9	0	0	1	-360	360	0.0000	0.0000	0.0000	0.0000	0.0000	0.0000	0.0000	0.0000;
	1391	4731	0.0021	0.0061	0.0007	128	128	140.8	0	0	1	-360	360	0.0000	0.0000	0.0000	0.0000	0.0000	0.0000	0.0000	0.0000;
	1401	1661	0.0579	0.1281	0.013	128	128	140.8	0	0	1	-360	360	0.0000	0.0000	0.0000	0.0000	0.0000	0.0000	0.0000	0.0000;
	1401	4041	0.042	0.0929	0.0087	114	114	125.4	0	0	1	-360	360	0.0000	0.0000	0.0000	0.0000	0.0000	0.0000	0.0000	0.0000;
	1401	14061	0	0.001	0	128	128	140.8	0	0	1	-360	360	0.0000	0.0000	0.0000	0.0000	0.0000	0.0000	0.0000	0.0000;
	1421	4511	0.002	0.0041	0.092	119	119	130.9	0	0	1	-360	360	0.0000	0.0000	0.0000	0.0000	0.0000	0.0000	0.0000	0.0000;
	1421	4651	0.003	0.006	0.1362	119	119	130.9	0	0	1	-360	360	0.0000	0.0000	0.0000	0.0000	0.0000	0.0000	0.0000	0.0000;
	1441	1501	0.004	0.009	0.0009	68	128	140.8	0	0	1	-360	360	0.0000	0.0000	0.0000	0.0000	0.0000	0.0000	0.0000	0.0000;
	1441	2221	0.0402	0.089	0.0083	128	128	140.8	0	0	1	-360	360	0.0000	0.0000	0.0000	0.0000	0.0000	0.0000	0.0000	0.0000;
	1441	4731	0.0413	0.0914	0.0115	128	128	140.8	0	0	1	-360	360	0.0000	0.0000	0.0000	0.0000	0.0000	0.0000	0.0000	0.0000;
	1441	14461	0	0.0001	0	128	128	140.8	0	0	1	-360	360	0.0000	0.0000	0.0000	0.0000	0.0000	0.0000	0.0000	0.0000;
	1441	15010	0.0039	0.0086	0.0008	68	128	140.8	0	0	1	-360	360	0.0000	0.0000	0.0000	0.0000	0.0000	0.0000	0.0000	0.0000;
	1451	2581	0.0049	0.0156	0.0084	154	154	169.4	0	0	1	-360	360	0.0000	0.0000	0.0000	0.0000	0.0000	0.0000	0.0000	0.0000;
	1451	3761	0.0034	0.0109	0.0039	128	128	140.8	0	0	1	-360	360	0.0000	0.0000	0.0000	0.0000	0.0000	0.0000	0.0000	0.0000;
	1461	14619	0.0004	0.0011	0.0002	166	166	182.6	0	0	1	-360	360	0.0000	0.0000	0.0000	0.0000	0.0000	0.0000	0.0000	0.0000;
	1481	2001	0.0073	0.0376	0.0041	219	219	240.9	0	0	1	-360	360	0.0000	0.0000	0.0000	0.0000	0.0000	0.0000	0.0000	0.0000;
	1481	3401	0.0017	0.0088	0.001	219	219	240.9	0	0	1	-360	360	0.0000	0.0000	0.0000	0.0000	0.0000	0.0000	0.0000	0.0000;
	1541	1841	0.0179	0.0811	0.0087	137	219	240.9	0	0	1	-360	360	0.0000	0.0000	0.0000	0.0000	0.0000	0.0000	0.0000	0.0000;
	1551	16011	0.008	0.0395	0.0394	219	219	240.9	0	0	1	-360	360	0.0000	0.0000	0.0000	0.0000	0.0000	0.0000	0.0000	0.0000;
	1581	4491	0.0024	0.0072	0.0053	129	129	141.9	0	0	1	-360	360	0.0000	0.0000	0.0000	0.0000	0.0000	0.0000	0.0000	0.0000;
	1581	5521	0.0025	0.0053	0.0286	131	131	144.1	0	0	1	-360	360	0.0000	0.0000	0.0000	0.0000	0.0000	0.0000	0.0000	0.0000;
	1601	1611	0.0188	0.0968	0.0105	219	219	240.9	0	0	1	-360	360	0.0000	0.0000	0.0000	0.0000	0.0000	0.0000	0.0000	0.0000;
	1601	3881	0.0036	0.0184	0.002	219	219	240.9	0	0	1	-360	360	0.0000	0.0000	0.0000	0.0000	0.0000	0.0000	0.0000	0.0000;
	1601	16011	0	0.0001	0	219	219	240.9	0	0	1	-360	360	0.0000	0.0000	0.0000	0.0000	0.0000	0.0000	0.0000	0.0000;
	1602	3202	0.0062	0.0385	0.0612	548	804	884.4	0	0	1	-360	360	0.0000	0.0000	0.0000	0.0000	0.0000	0.0000	0.0000	0.0000;
	1602	5142	0.0113	0.0843	0.1272	534	534	587.4	0	0	1	-360	360	0.0000	0.0000	0.0000	0.0000	0.0000	0.0000	0.0000	0.0000;
	1611	3301	0.0128	0.066	0.0072	219	219	240.9	0	0	1	-360	360	0.0000	0.0000	0.0000	0.0000	0.0000	0.0000	0.0000	0.0000;
	1611	16110	0	0.001	0	999	999	1098.9	0	0	1	-360	360	0.0000	0.0000	0.0000	0.0000	0.0000	0.0000	0.0000	0.0000;
	1621	3061	0.0018	0.0089	0.001	219	219	240.9	0	0	1	-360	360	0.0000	0.0000	0.0000	0.0000	0.0000	0.0000	0.0000	0.0000;
	1621	3221	0.0094	0.0468	0.0054	219	219	240.9	0	0	1	-360	360	0.0000	0.0000	0.0000	0.0000	0.0000	0.0000	0.0000	0.0000;
	1631	2671	0.0046	0.0238	0.0026	91	219	240.9	0	0	1	-360	360	0.0000	0.0000	0.0000	0.0000	0.0000	0.0000	0.0000	0.0000;
	1631	5041	0.0197	0.0435	0.0041	128	128	140.8	0	0	1	-360	360	0.0000	0.0000	0.0000	0.0000	0.0000	0.0000	0.0000	0.0000;
	1631	10619	0.0143	0.0457	0.0047	166	166	182.6	0	0	1	-360	360	0.0000	0.0000	0.0000	0.0000	0.0000	0.0000	0.0000	0.0000;
	1641	1821	0.0144	0.0741	0.0081	196	196	215.6	0	0	1	-360	360	0.0000	0.0000	0.0000	0.0000	0.0000	0.0000	0.0000	0.0000;
	1641	2281	0.0809	0.1788	0.0167	128	128	140.8	0	0	1	-360	360	0.0000	0.0000	0.0000	0.0000	0.0000	0.0000	0.0000	0.0000;
	1641	2361	0.0336	0.1737	0.0189	120	120	132	0	0	1	-360	360	0.0000	0.0000	0.0000	0.0000	0.0000	0.0000	0.0000	0.0000;
	1641	2781	0.0214	0.0474	0.0044	128	128	140.8	0	0	1	-360	360	0.0000	0.0000	0.0000	0.0000	0.0000	0.0000	0.0000	0.0000;
	1641	2781	0.0176	0.0388	0.0036	128	128	140.8	0	0	1	-360	360	0.0000	0.0000	0.0000	0.0000	0.0000	0.0000	0.0000	0.0000;
	1641	2781	0.0176	0.0388	0.0036	128	128	140.8	0	0	1	-360	360	0.0000	0.0000	0.0000	0.0000	0.0000	0.0000	0.0000	0.0000;
	1641	4951	0.0331	0.0727	0.0672	105	105	115.5	0	0	1	-360	360	0.0000	0.0000	0.0000	0.0000	0.0000	0.0000	0.0000	0.0000;
	1641	16411	0	0.0001	0	128	128	140.8	0	0	1	-360	360	0.0000	0.0000	0.0000	0.0000	0.0000	0.0000	0.0000	0.0000;
	1641	16461	0	0.0001	0	128	128	140.8	0	0	1	-360	360	0.0000	0.0000	0.0000	0.0000	0.0000	0.0000	0.0000	0.0000;
	1641	16462	0	0.0001	0	999	999	1098.9	0	0	1	-360	360	0.0000	0.0000	0.0000	0.0000	0.0000	0.0000	0.0000	0.0000;
	1641	50019	0.0698	0.1544	0.0144	128	128	140.8	0	0	1	-360	360	0.0000	0.0000	0.0000	0.0000	0.0000	0.0000	0.0000	0.0000;
	1642	2522	0.0103	0.0763	0.1152	405	405	445.5	0	0	1	-360	360	0.0000	0.0000	0.0000	0.0000	0.0000	0.0000	0.0000	0.0000;
	1642	4522	0.0103	0.0767	0.1158	534	534	587.4	0	0	1	-360	360	0.0000	0.0000	0.0000	0.0000	0.0000	0.0000	0.0000	0.0000;
	1642	5172	0.0046	0.0289	0.0459	730	804	884.4	0	0	1	-360	360	0.0000	0.0000	0.0000	0.0000	0.0000	0.0000	0.0000	0.0000;
	1651	5261	0.014	0.031	0.0029	128	128	140.8	0	0	1	-360	360	0.0000	0.0000	0.0000	0.0000	0.0000	0.0000	0.0000	0.0000;
	1651	5281	0.0199	0.0445	0.0251	128	128	140.8	0	0	1	-360	360	0.0000	0.0000	0.0000	0.0000	0.0000	0.0000	0.0000	0.0000;
	1661	1821	0.0893	0.1978	0.0195	128	128	140.8	0	0	1	-360	360	0.0000	0.0000	0.0000	0.0000	0.0000	0.0000	0.0000	0.0000;
	1661	1951	0.0375	0.0825	0.0518	120	124	136.4	0	0	1	-360	360	0.0000	0.0000	0.0000	0.0000	0.0000	0.0000	0.0000	0.0000;
	1661	2281	0.0432	0.0955	0.0089	93	128	140.8	0	0	1	-360	360	0.0000	0.0000	0.0000	0.0000	0.0000	0.0000	0.0000	0.0000;
	1661	16661	0	0.0001	0	128	128	140.8	0	0	1	-360	360	0.0000	0.0000	0.0000	0.0000	0.0000	0.0000	0.0000	0.0000;
	1661	16662	0	0.01	0	9999	9999	10998.9	0	0	1	-360	360	0.0000	0.0000	0.0000	0.0000	0.0000	0.0000	0.0000	0.0000;
	1681	3881	0.0038	0.0083	0.0008	128	128	140.8	0	0	1	-360	360	0.0000	0.0000	0.0000	0.0000	0.0000	0.0000	0.0000	0.0000;
	1681	32210	0.0202	0.1043	0.0113	219	219	240.9	0	0	1	-360	360	0.0000	0.0000	0.0000	0.0000	0.0000	0.0000	0.0000	0.0000;
	1691	5131	0.0029	0.0056	0.0725	100	100	110	0	0	1	-360	360	0.0000	0.0000	0.0000	0.0000	0.0000	0.0000	0.0000	0.0000;
	1691	51319	0.0018	0.0037	0.0247	100	100	110	0	0	1	-360	360	0.0000	0.0000	0.0000	0.0000	0.0000	0.0000	0.0000	0.0000;
	1701	1761	0.0058	0.0184	0.0019	68	166	182.6	0	0	1	-360	360	0.0000	0.0000	0.0000	0.0000	0.0000	0.0000	0.0000	0.0000;
	1701	1981	0.0385	0.1992	0.0216	219	219	240.9	0	0	1	-360	360	0.0000	0.0000	0.0000	0.0000	0.0000	0.0000	0.0000	0.0000;
	1701	2321	0.0768	0.1757	0.0166	120	128	140.8	0	0	1	-360	360	0.0000	0.0000	0.0000	0.0000	0.0000	0.0000	0.0000	0.0000;
	1701	5041	0.0649	0.1787	0.021	137	221	243.1	0	0	1	-360	360	0.0000	0.0000	0.0000	0.0000	0.0000	0.0000	0.0000	0.0000;
	1701	17010	0	0.0001	0	999	999	1098.9	0	0	1	-360	360	0.0000	0.0000	0.0000	0.0000	0.0000	0.0000	0.0000	0.0000;
	1701	17061	0	0.001	0	128	128	140.8	0	0	1	-360	360	0.0000	0.0000	0.0000	0.0000	0.0000	0.0000	0.0000	0.0000;
	1701	28019	0.0363	0.0929	0.0085	137	222	244.2	0	0	1	-360	360	0.0000	0.0000	0.0000	0.0000	0.0000	0.0000	0.0000	0.0000;
	1711	3421	0.001	0.0021	0.0136	140	140	154	0	0	1	-360	360	0.0000	0.0000	0.0000	0.0000	0.0000	0.0000	0.0000	0.0000;
	1721	2161	0.0099	0.0511	0.0056	219	219	240.9	0	0	1	-360	360	0.0000	0.0000	0.0000	0.0000	0.0000	0.0000	0.0000	0.0000;
	1721	4911	0.00151	0.00547	0.03492	118	118	129.8	0	0	1	-360	360	0.0000	0.0000	0.0000	0.0000	0.0000	0.0000	0.0000	0.0000;
	1721	5301	0.0406	0.1302	0.0133	137	166	182.6	0	0	1	-360	360	0.0000	0.0000	0.0000	0.0000	0.0000	0.0000	0.0000	0.0000;
	1721	5381	0.0282	0.0625	0.0058	128	128	140.8	0	0	1	-360	360	0.0000	0.0000	0.0000	0.0000	0.0000	0.0000	0.0000	0.0000;
	1721	14619	0.0653	0.1497	0.0141	128	128	140.8	0	0	1	-360	360	0.0000	0.0000	0.0000	0.0000	0.0000	0.0000	0.0000	0.0000;
	1721	17261	0	0.0001	0	128	128	140.8	0	0	1	-360	360	0.0000	0.0000	0.0000	0.0000	0.0000	0.0000	0.0000	0.0000;
	1731	3421	0.001	0.0021	0.0136	140	140	154	0	0	1	-360	360	0.0000	0.0000	0.0000	0.0000	0.0000	0.0000	0.0000	0.0000;
	1741	4511	0.0013	0.0025	0.0566	119	119	130.9	0	0	1	-360	360	0.0000	0.0000	0.0000	0.0000	0.0000	0.0000	0.0000	0.0000;
	1741	17411	0	0.0001	0	219	219	240.9	0	0	1	-360	360	0.0000	0.0000	0.0000	0.0000	0.0000	0.0000	0.0000	0.0000;
	1741	51319	0.0002	0.0004	0.0001	137	166	182.6	0	0	1	-360	360	0.0000	0.0000	0.0000	0.0000	0.0000	0.0000	0.0000	0.0000;
	1742	2202	0.0049	0.0361	0.0544	534	534	587.4	0	0	1	-360	360	0.0000	0.0000	0.0000	0.0000	0.0000	0.0000	0.0000	0.0000;
	1742	3122	0.0004	0.0045	0.3148	593	593	652.3	0	0	1	-360	360	0.0000	0.0000	0.0000	0.0000	0.0000	0.0000	0.0000	0.0000;
	1742	17431	0	0.0001	0	534	534	587.4	0	0	1	-360	360	0.0000	0.0000	0.0000	0.0000	0.0000	0.0000	0.0000	0.0000;
	1742	17462	0	0.0001	0	534	534	587.4	0	0	1	-360	360	0.0000	0.0000	0.0000	0.0000	0.0000	0.0000	0.0000	0.0000;
	1801	4111	0.0136	0.045	0.0272	130	130	143	0	0	1	-360	360	0.0000	0.0000	0.0000	0.0000	0.0000	0.0000	0.0000	0.0000;
	1801	17411	0.0134	0.0417	0.0604	130	130	143	0	0	1	-360	360	0.0000	0.0000	0.0000	0.0000	0.0000	0.0000	0.0000	0.0000;
	1821	3501	0.0951	0.2216	0.021	126	126	138.6	0	0	1	-360	360	0.0000	0.0000	0.0000	0.0000	0.0000	0.0000	0.0000	0.0000;
	1841	3641	0.0051	0.026	0.0029	219	219	240.9	0	0	1	-360	360	0.0000	0.0000	0.0000	0.0000	0.0000	0.0000	0.0000	0.0000;
	1841	5501	0.0222	0.0711	0.0073	137	166	182.6	0	0	1	-360	360	0.0000	0.0000	0.0000	0.0000	0.0000	0.0000	0.0000	0.0000;
	1861	2521	0.0053	0.0117	0.0011	125	125	137.5	0	0	1	-360	360	0.0000	0.0000	0.0000	0.0000	0.0000	0.0000	0.0000	0.0000;
	1861	2521	0.0052	0.0114	0.0011	125	125	137.5	0	0	1	-360	360	0.0000	0.0000	0.0000	0.0000	0.0000	0.0000	0.0000	0.0000;
	1861	10619	0.0216	0.0693	0.0071	128	128	140.8	0	0	1	-360	360	0.0000	0.0000	0.0000	0.0000	0.0000	0.0000	0.0000	0.0000;
	1871	2581	0.0034	0.0127	0.0382	124	124	136.4	0	0	1	-360	360	0.0000	0.0000	0.0000	0.0000	0.0000	0.0000	0.0000	0.0000;
	1871	20411	0.0009	0.0043	0.0196	130	130	143	0	0	1	-360	360	0.0000	0.0000	0.0000	0.0000	0.0000	0.0000	0.0000	0.0000;
	1881	2881	0.0467	0.1032	0.0096	128	128	140.8	0	0	1	-360	360	0.0000	0.0000	0.0000	0.0000	0.0000	0.0000	0.0000	0.0000;
	1881	3281	0.0385	0.1231	0.0126	166	166	182.6	0	0	1	-360	360	0.0000	0.0000	0.0000	0.0000	0.0000	0.0000	0.0000	0.0000;
	1881	4021	0.0142	0.0731	0.008	219	219	240.9	0	0	1	-360	360	0.0000	0.0000	0.0000	0.0000	0.0000	0.0000	0.0000	0.0000;
	1901	3341	0.0084	0.0186	0.0018	128	128	140.8	0	0	1	-360	360	0.0000	0.0000	0.0000	0.0000	0.0000	0.0000	0.0000	0.0000;
	1901	3341	0.0082	0.0186	0.0017	128	128	140.8	0	0	1	-360	360	0.0000	0.0000	0.0000	0.0000	0.0000	0.0000	0.0000	0.0000;
	1901	50619	0.0274	0.0606	0.0057	68	128	140.8	0	0	1	-360	360	0.0000	0.0000	0.0000	0.0000	0.0000	0.0000	0.0000	0.0000;
	1921	1961	0.0245	0.0543	0.0182	128	128	140.8	0	0	1	-360	360	0.0000	0.0000	0.0000	0.0000	0.0000	0.0000	0.0000	0.0000;
	1921	4341	0.0035	0.0079	0.0008	31	128	140.8	0	0	1	-360	360	0.0000	0.0000	0.0000	0.0000	0.0000	0.0000	0.0000	0.0000;
	1921	4351	0.0033	0.0076	0.0007	31	128	140.8	0	0	1	-360	360	0.0000	0.0000	0.0000	0.0000	0.0000	0.0000	0.0000	0.0000;
	1921	4721	0.01	0.0236	0.0033	128	128	140.8	0	0	1	-360	360	0.0000	0.0000	0.0000	0.0000	0.0000	0.0000	0.0000	0.0000;
	1921	5481	0.0272	0.0615	0.0058	128	128	140.8	0	0	1	-360	360	0.0000	0.0000	0.0000	0.0000	0.0000	0.0000	0.0000	0.0000;
	1931	4371	0.0402	0.0891	0.0083	125	125	137.5	0	0	1	-360	360	0.0000	0.0000	0.0000	0.0000	0.0000	0.0000	0.0000	0.0000;
	1931	4981	0.0311	0.0688	0.0064	126	126	138.6	0	0	1	-360	360	0.0000	0.0000	0.0000	0.0000	0.0000	0.0000	0.0000	0.0000;
	1941	2401	0.0151	0.0483	0.005	166	166	182.6	0	0	1	-360	360	0.0000	0.0000	0.0000	0.0000	0.0000	0.0000	0.0000	0.0000;
	1941	4201	0.0325	0.1041	0.0107	166	166	182.6	0	0	1	-360	360	0.0000	0.0000	0.0000	0.0000	0.0000	0.0000	0.0000	0.0000;
	1941	4481	0.0436	0.1396	0.0143	166	166	182.6	0	0	1	-360	360	0.0000	0.0000	0.0000	0.0000	0.0000	0.0000	0.0000	0.0000;
	1961	2081	0.0006	0.0013	0.0002	128	128	140.8	0	0	1	-360	360	0.0000	0.0000	0.0000	0.0000	0.0000	0.0000	0.0000	0.0000;
	1961	3201	0.0117	0.0259	0.0035	128	128	140.8	0	0	1	-360	360	0.0000	0.0000	0.0000	0.0000	0.0000	0.0000	0.0000	0.0000;
	1971	2731	0.0007	0.0032	0.0147	130	130	143	0	0	1	-360	360	0.0000	0.0000	0.0000	0.0000	0.0000	0.0000	0.0000	0.0000;
	1971	16110	0.004	0.0205	0.0023	219	219	240.9	0	0	1	-360	360	0.0000	0.0000	0.0000	0.0000	0.0000	0.0000	0.0000	0.0000;
	1981	2821	0.0069	0.0355	0.0039	219	219	240.9	0	0	1	-360	360	0.0000	0.0000	0.0000	0.0000	0.0000	0.0000	0.0000	0.0000;
	1981	79016	0.0472	0.1068	0.0102	124	124	124	0	0	1	-360	360	0.0000	0.0000	0.0000	0.0000	0.0000	0.0000	0.0000	0.0000;
	1991	3641	0.0034	0.0091	0.0412	91	116	127.6	0	0	1	-360	360	0.0000	0.0000	0.0000	0.0000	0.0000	0.0000	0.0000	0.0000;
	2001	2141	0.0212	0.1102	0.0213	219	219	240.9	0	0	1	-360	360	0.0000	0.0000	0.0000	0.0000	0.0000	0.0000	0.0000	0.0000;
	2001	5441	0.0064	0.0326	0.0547	219	219	240.9	0	0	1	-360	360	0.0000	0.0000	0.0000	0.0000	0.0000	0.0000	0.0000	0.0000;
	2002	2742	0.0027	0.02	0.0302	414	414	455.4	0	0	1	-360	360	0.0000	0.0000	0.0000	0.0000	0.0000	0.0000	0.0000	0.0000;
	2002	3203	0.0117	0.0735	0.1168	804	804	884.4	0	0	1	-360	360	0.0000	0.0000	0.0000	0.0000	0.0000	0.0000	0.0000	0.0000;
	2021	3091	0.0111	0.0301	0.003	128	128	140.8	0	0	1	-360	360	0.0000	0.0000	0.0000	0.0000	0.0000	0.0000	0.0000	0.0000;
	2021	18010	0.0043	0.01	0.001	128	128	140.8	0	0	1	-360	360	0.0000	0.0000	0.0000	0.0000	0.0000	0.0000	0.0000	0.0000;
	2041	4001	0.0884	0.237	0.0413	128	128	140.8	0	0	1	-360	360	0.0000	0.0000	0.0000	0.0000	0.0000	0.0000	0.0000	0.0000;
	2041	4501	0.0233	0.1202	0.0131	219	219	240.9	0	0	1	-360	360	0.0000	0.0000	0.0000	0.0000	0.0000	0.0000	0.0000	0.0000;
	2041	4621	0.0119	0.0394	0.0209	130	130	143	0	0	1	-360	360	0.0000	0.0000	0.0000	0.0000	0.0000	0.0000	0.0000	0.0000;
	2041	20411	0	0.0001	0	166	166	182.6	0	0	1	-360	360	0.0000	0.0000	0.0000	0.0000	0.0000	0.0000	0.0000	0.0000;
	2042	2052	0	0.0001	0	999	999	1098.9	0	0	1	-360	360	0.0000	0.0000	0.0000	0.0000	0.0000	0.0000	0.0000	0.0000;
	2042	2562	0.0005	0.0033	0.0049	534	534	587.4	0	0	1	-360	360	0.0000	0.0000	0.0000	0.0000	0.0000	0.0000	0.0000	0.0000;
	2042	2972	0.0002	0.0018	0.1232	593	593	652.3	0	0	1	-360	360	0.0000	0.0000	0.0000	0.0000	0.0000	0.0000	0.0000	0.0000;
	2042	5462	0.0022	0.016	0.0241	534	534	587.4	0	0	1	-360	360	0.0000	0.0000	0.0000	0.0000	0.0000	0.0000	0.0000	0.0000;
	2052	2563	0.0005	0.0033	0.0049	534	534	587.4	0	0	1	-360	360	0.0000	0.0000	0.0000	0.0000	0.0000	0.0000	0.0000	0.0000;
	2052	5462	0.0021	0.0155	0.0234	534	534	587.4	0	0	1	-360	360	0.0000	0.0000	0.0000	0.0000	0.0000	0.0000	0.0000	0.0000;
	2101	4061	0.0117	0.0258	0.0025	128	128	140.8	0	0	1	-360	360	0.0000	0.0000	0.0000	0.0000	0.0000	0.0000	0.0000	0.0000;
	2101	35211	0.0262	0.0582	0.0054	128	128	140.8	0	0	1	-360	360	0.0000	0.0000	0.0000	0.0000	0.0000	0.0000	0.0000	0.0000;
...
];

%%-----  OPF Data  -----%%
%% generator cost data
%	1	startup	shutdown	n	x1	y1	...	xn	yn
%	2	startup	shutdown	n	c(n-1)	...	c0
mpc.gencost = [
	2	0	0	3	0.01	0.1	10;
	2	0	0	3	0.01	0.1	10;
	2	0	0	3	0.01	0.1	10;
	2	0	0	3	0.01	0.1	10;
	2	0	0	3	0.01	0.1	10;
	2	0	0	3	0.01	0.1	10;
	2	0	0	3	0.01	0.1	10;
	2	0	0	3	0.01	0.1	10;
	2	0	0	3	0.01	0.1	10;
	2	0	0	3	0.01	0.1	10;
	2	0	0	3	0.01	0.1	10;
	2	0	0	3	0.01	0.1	10;
	2	0	0	3	0.01	0.1	10;
	2	0	0	3	0.01	0.1	10;
	2	0	0	3	0.01	0.1	10;
	2	0	0	3	0.01	0.1	10;
	2	0	0	3	0.01	0.1	10;
	2	0	0	3	0.01	0.1	10;
	2	0	0	3	0.01	0.1	10;
	2	0	0	3	0.01	0.1	10;
	2	0	0	3	0.01	0.1	10;
	2	0	0	3	0.01	0.1	10;
	2	0	0	3	0.01	0.1	10;
	2	0	0	3	0.01	0.1	10;
	2	0	0	3	0.01	0.1	10;
	2	0	0	3	0.01	0.1	10;
	2	0	0	3	0.01	0.1	10;
	2	0	0	3	0.01	0.1	10;
	2	0	0	3	0.01	0.1	10;
	2	0	0	3	0.01	0.1	10;
	2	0	0	3	0.01	0.1	10;
	2	0	0	3	0.01	0.1	10;
	2	0	0	3	0.01	0.1	10;
	2	0	0	3	0.01	0.1	10;
	2	0	0	3	0.01	0.1	10;
	2	0	0	3	0.01	0.1	10;
	2	0	0	3	0.01	0.1	10;
	2	0	0	3	0.01	0.1	10;
	2	0	0	3	0.01	0.1	10;
	2	0	0	3	0.01	0.1	10;
	2	0	0	3	0.01	0.1	10;
	2	0	0	3	0.01	0.1	10;
	2	0	0	3	0.01	0.1	10;
	2	0	0	3	0.01	0.1	10;
	2	0	0	3	0.01	0.1	10;
	2	0	0	3	0.01	0.1	10;
	2	0	0	3	0.01	0.1	10;
	2	0	0	3	0.01	0.1	10;
	2	0	0	3	0.01	0.1	10;
	2	0	0	3	0.01	0.1	10;
	2	0	0	3	0.01	0.1	10;
	2	0	0	3	0.01	0.1	10;
	2	0	0	3	0.01	0.1	10;
	2	0	0	3	0.01	0.1	10;
	2	0	0	3	0.01	0.1	10;
	2	0	0	3	0.01	0.1	10;
	2	0	0	3	0.01	0.1	10;
	2	0	0	3	0.01	0.1	10;
	2	0	0	3	0.01	0.1	10;
	2	0	0	3	0.01	0.1	10;
	2	0	0	3	0.01	0.1	10;
	2	0	0	3	0.01	0.1	10;
	2	0	0	3	0.01	0.1	10;
	2	0	0	3	0.01	0.1	10;
	2	0	0	3	0.01	0.1	10;
	2	0	0	3	0.01	0.1	10;
	2	0	0	3	0.01	0.1	10;
	2	0	0	3	0.01	0.1	10;
	2	0	0	3	0.01	0.1	10;
	2	0	0	3	0.01	0.1	10;
	2	0	0	3	0.01	0.1	10;
	2	0	0	3	0.01	0.1	10;
	2	0	0	3	0.01	0.1	10;
	2	0	0	3	0.01	0.1	10;
	2	0	0	3	0.01	0.1	10;
	2	0	0	3	0.01	0.1	10;
	2	0	0	3	0.01	0.1	10;
	2	0	0	3	0.01	0.1	10;
	2	0	0	3	0.01	0.1	10;
	2	0	0	3	0.01	0.1	10;
	2	0	0	3	0.01	0.1	10;
	2	0	0	3	0.01	0.1	10;
	2	0	0	3	0.01	0.1	10;
	2	0	0	3	0.01	0.1	10;
	2	0	0	3	0.01	0.1	10;
	2	0	0	3	0.01	0.1	10;
	2	0	0	3	0.01	0.1	10;
	2	0	0	3	0.01	0.1	10;
	2	0	0	3	0.01	0.1	10;
	2	0	0	3	0.01	0.1	10;
	2	0	0	3	0.01	0.1	10;
	2	0	0	3	0.01	0.1	10;
	2	0	0	3	0.01	0.1	10;
	2	0	0	3	0.01	0.1	10;
	2	0	0	3	0.01	0.1	10;
	2	0	0	3	0.01	0.1	10;
	2	0	0	3	0.01	0.1	10;
	2	0	0	3	0.01	0.1	10;
	2	0	0	3	0.01	0.1	10;
	2	0	0	3	0.01	0.1	10;
	2	0	0	3	0.01	0.1	10;
	2	0	0	3	0.01	0.1	10;
	2	0	0	3	0.01	0.1	10;
	2	0	0	3	0.01	0.1	10;
	2	0	0	3	0.01	0.1	10;
	2	0	0	3	0.01	0.1	10;
	2	0	0	3	0.01	0.1	10;
	2	0	0	3	0.01	0.1	10;
	2	0	0	3	0.01	0.1	10;
	2	0	0	3	0.01	0.1	10;
	2	0	0	3	0.01	0.1	10;
	2	0	0	3	0.01	0.1	10;
	2	0	0	3	0.01	0.1	10;
	2	0	0	3	0.01	0.1	10;
	2	0	0	3	0.01	0.1	10;
	2	0	0	3	0.01	0.1	10;
	2	0	0	3	0.01	0.1	10;
	2	0	0	3	0.01	0.1	10;
	2	0	0	3	0.01	0.1	10;
	2	0	0	3	0.01	0.1	10;
	2	0	0	3	0.01	0.1	10;
	2	0	0	3	0.01	0.1	10;
	2	0	0	3	0.01	0.1	10;
	2	0	0	3	0.01	0.1	10;
	2	0	0	3	0.01	0.1	10;
	2	0	0	3	0.01	0.1	10;
	2	0	0	3	0.01	0.1	10;
	2	0	0	3	0.01	0.1	10;
	2	0	0	3	0.01	0.1	10;
	2	0	0	3	0.01	0.1	10;
	2	0	0	3	0.01	0.1	10;
	2	0	0	3	0.01	0.1	10;
	2	0	0	3	0.01	0.1	10;
	2	0	0	3	0.01	0.1	10;
	2	0	0	3	0.01	0.1	10;
	2	0	0	3	0.01	0.1	10;
	2	0	0	3	0.01	0.1	10;
	2	0	0	3	0.01	0.1	10;
	2	0	0	3	0.01	0.1	10;
	2	0	0	3	0.01	0.1	10;
	2	0	0	3	0.01	0.1	10;
	2	0	0	3	0.01	0.1	10;
	2	0	0	3	0.01	0.1	10;
	2	0	0	3	0.01	0.1	10;
	2	0	0	3	0.01	0.1	10;
	2	0	0	3	0.01	0.1	10;
	2	0	0	3	0.01	0.1	10;
	2	0	0	3	0.01	0.1	10;
	2	0	0	3	0.01	0.1	10;
	2	0	0	3	0.01	0.1	10;
	2	0	0	3	0.01	0.1	10;
	2	0	0	3	0.01	0.1	10;
	2	0	0	3	0.01	0.1	10;
	2	0	0	3	0.01	0.1	10;
	2	0	0	3	0.01	0.1	10;
	2	0	0	3	0.01	0.1	10;
	2	0	0	3	0.01	0.1	10;
	2	0	0	3	0.01	0.1	10;
	2	0	0	3	0.01	0.1	10;
	2	0	0	3	0.01	0.1	10;
	2	0	0	3	0.01	0.1	10;
	2	0	0	3	0.01	0.1	10;
	2	0	0	3	0.01	0.1	10;
	2	0	0	3	0.01	0.1	10;
	2	0	0	3	0.01	0.1	10;
	2	0	0	3	0.01	0.1	10;
	2	0	0	3	0.01	0.1	10;
	2	0	0	3	0.01	0.1	10;
	2	0	0	3	0.01	0.1	10;
	2	0	0	3	0.01	0.1	10;
	2	0	0	3	0.01	0.1	10;
	2	0	0	3	0.01	0.1	10;
	2	0	0	3	0.01	0.1	10;
	2	0	0	3	0.01	0.1	10;
	2	0	0	3	0.01	0.1	10;
	2	0	0	3	0.01	0.1	10;
	2	0	0	3	0.01	0.1	10;
	2	0	0	3	0.01	0.1	10;
	2	0	0	3	0.01	0.1	10;
	2	0	0	3	0.01	0.1	10;
	2	0	0	3	0.01	0.1	10;
	2	0	0	3	0.01	0.1	10;
	2	0	0	3	0.01	0.1	10;
	2	0	0	3	0.01	0.1	10;
	2	0	0	3	0.01	0.1	10;
	2	0	0	3	0.01	0.1	10;
	2	0	0	3	0.01	0.1	10;
	2	0	0	3	0.01	0.1	10;
	2	0	0	3	0.01	0.1	10;
	2	0	0	3	0.01	0.1	10;
	2	0	0	3	0.01	0.1	10;
	2	0	0	3	0.01	0.1	10;
	2	0	0	3	0.01	0.1	10;
	2	0	0	3	0.01	0.1	10;
	2	0	0	3	0.01	0.1	10;
	2	0	0	3	0.01	0.1	10;
	2	0	0	3	0.01	0.1	10;
	2	0	0	3	0.01	0.1	10;
	2	0	0	3	0.01	0.1	10;
	2	0	0	3	0.01	0.1	10;
...
];
